MODEL 1
REMARK VINA RESULT: -9.408805153      0.000      0.000
REMARK  15 active torsions:
REMARK  status: ('A' for Active; 'I' for Inactive)
REMARK       I    between atoms: C1_4  and  N3_6 
REMARK    1  A    between atoms: N3_6  and  C2_8 
REMARK    2  A    between atoms: C2_8  and  C3_9 
REMARK    3  A    between atoms: C3_9  and  C4_10 
REMARK    4  A    between atoms: C4_10  and  C5_11 
REMARK    5  A    between atoms: C5_11  and  N4_12 
REMARK    6  A    between atoms: C5_11  and  C6_16 
REMARK       I    between atoms: C6_16  and  N5_18 
REMARK    7  A    between atoms: N5_18  and  C7_20 
REMARK    8  A    between atoms: C7_20  and  C8_21 
REMARK    9  A    between atoms: C7_20  and  N11_38 
REMARK       I    between atoms: C8_21  and  N6_23 
REMARK   10  A    between atoms: N6_23  and  C9_25 
REMARK   11  A    between atoms: C13_29  and  C14_30 
REMARK   12  A    between atoms: N11_38  and  C22_45 
REMARK   13  A    between atoms: C16_39  and  C17_40 
REMARK   14  A    between atoms: C17_40  and  C18_41 
REMARK   15  A    between atoms: C22_45  and  C23_46 
ROOT
HETATM    1  C7  UNL     1     -14.259  -8.553  21.861  1.00  0.00     0.182 C 
ENDROOT
BRANCH   1   2
HETATM    2  N5  UNL     1     -13.450  -8.048  20.831  1.00  0.00    -0.306 N 
HETATM    3  C6  UNL     1     -13.929  -7.121  19.883  1.00  0.00     0.254 C 
HETATM    4  O1  UNL     1     -15.151  -6.764  19.978  1.00  0.00    -0.271 OA
ATOM      5  H5  UNL     1     -12.482  -8.362  20.766  1.00  0.00     0.170 HD
BRANCH   3   6
HETATM    6  C5  UNL     1     -13.083  -6.547  18.797  1.00  0.00     0.275 C 
BRANCH   6   7
HETATM    7  C4  UNL     1     -13.853  -5.492  18.074  1.00  0.00     0.044 C 
BRANCH   7   8
HETATM    8  C3  UNL     1     -13.144  -4.254  17.677  1.00  0.00     0.022 C 
BRANCH   8   9
HETATM    9  C2  UNL     1     -12.925  -4.037  16.227  1.00  0.00     0.122 C 
BRANCH   9  10
HETATM   10  N3  UNL     1     -13.502  -2.724  15.857  1.00  0.00    -0.365 N 
HETATM   11  C1  UNL     1     -14.811  -2.603  15.351  1.00  0.00     0.181 C 
HETATM   12  N1  UNL     1     -15.432  -3.629  14.884  1.00  0.00    -0.374 N 
HETATM   13  N2  UNL     1     -15.446  -1.330  15.356  1.00  0.00    -0.064 NA
ATOM     14  H12 UNL     1     -16.380  -3.542  14.517  1.00  0.00     0.158 HD
ATOM     15  H11 UNL     1     -14.976  -4.541  14.881  1.00  0.00     0.158 HD
ATOM     16  H3  UNL     1     -12.935  -1.884  15.972  1.00  0.00     0.162 HD
ENDBRANCH   9  10
ENDBRANCH   8   9
ENDBRANCH   7   8
ENDBRANCH   6   7
BRANCH   6  17
HETATM   17  N4  UNL     1     -12.605  -7.545  17.876  1.00  0.00    -0.066 N 
ATOM     18  H43 UNL     1     -13.015  -8.460  18.063  1.00  0.00     0.275 HD
ATOM     19  H42 UNL     1     -12.975  -7.402  16.937  1.00  0.00     0.275 HD
ATOM     20  H41 UNL     1     -11.585  -7.579  17.882  1.00  0.00     0.275 HD
ENDBRANCH   6  17
ENDBRANCH   3   6
ENDBRANCH   1   2
BRANCH   1  21
HETATM   21  C8  UNL     1     -14.015  -9.983  22.119  1.00  0.00     0.286 C 
HETATM   22  O2  UNL     1     -12.822 -10.346  22.290  1.00  0.00    -0.264 OA
HETATM   23  N6  UNL     1     -15.077 -10.951  22.181  1.00  0.00    -0.350 N 
ATOM     24  H6  UNL     1     -16.047 -10.661  22.049  1.00  0.00     0.163 HD
BRANCH  23  25
HETATM   25  C9  UNL     1     -14.757 -12.341  22.431  1.00  0.00     0.085 C 
HETATM   26  C10 UNL     1     -15.331 -12.754  23.778  1.00  0.00     0.025 C 
HETATM   27  C11 UNL     1     -15.351 -14.254  23.929  1.00  0.00     0.003 C 
HETATM   28  C12 UNL     1     -16.023 -14.943  22.787  1.00  0.00     0.012 C 
HETATM   29  C13 UNL     1     -15.233 -14.656  21.535  1.00  0.00     0.057 C 
HETATM   30  C15 UNL     1     -15.210 -13.180  21.311  1.00  0.00     0.037 C 
BRANCH  29  31
HETATM   31  C14 UNL     1     -15.835 -15.294  20.350  1.00  0.00     0.111 A 
HETATM   32  N7  UNL     1     -17.065 -15.818  20.320  1.00  0.00    -0.274 N 
HETATM   33  N8  UNL     1     -17.308 -16.314  19.096  1.00  0.00    -0.007 NA
ATOM     34  H7  UNL     1     -17.717 -15.837  21.104  1.00  0.00     0.185 HD
HETATM   35  N9  UNL     1     -16.219 -16.094  18.361  1.00  0.00    -0.007 NA
HETATM   36  N10 UNL     1     -15.316 -15.468  19.129  1.00  0.00    -0.274 N 
ATOM     37  H10 UNL     1     -14.385 -15.173  18.832  1.00  0.00     0.185 HD
ENDBRANCH  29  31
ENDBRANCH  23  25
ENDBRANCH   1  21
BRANCH   1  38
HETATM   38  N11 UNL     1     -14.449  -7.751  23.049  1.00  0.00    -0.322 N 
HETATM   39  C16 UNL     1     -15.705  -7.567  23.551  1.00  0.00     0.071 C 
BRANCH  39  40
HETATM   40  C17 UNL     1     -16.499  -8.725  24.111  1.00  0.00     0.049 C 
BRANCH  40  41
HETATM   41  C18 UNL     1     -17.787  -8.262  24.741  1.00  0.00    -0.010 C 
HETATM   42  C19 UNL     1     -17.699  -7.485  26.010  1.00  0.00     0.005 C 
HETATM   43  C20 UNL     1     -17.801  -8.840  26.742  1.00  0.00     0.001 C 
HETATM   44  C21 UNL     1     -18.555  -9.313  25.491  1.00  0.00     0.005 C 
ENDBRANCH  40  41
ENDBRANCH  39  40
BRANCH  38  45
HETATM   45  C22 UNL     1     -13.258  -7.785  23.773  1.00  0.00     0.075 C 
BRANCH  45  46
HETATM   46  C23 UNL     1     -13.138  -7.758  25.229  1.00  0.00     0.025 C 
HETATM   47  C24 UNL     1     -13.700  -8.810  26.109  1.00  0.00     0.010 C 
HETATM   48  C25 UNL     1     -14.238  -7.749  27.069  1.00  0.00     0.001 C 
HETATM   49  C26 UNL     1     -13.981  -6.738  25.984  1.00  0.00     0.010 C 
ENDBRANCH  45  46
ENDBRANCH  38  45
ENDBRANCH   1  38
TORSDOF 15
ENDMDL
MODEL 2
REMARK VINA RESULT: -9.405171477      2.164      8.703
REMARK  15 active torsions:
REMARK  status: ('A' for Active; 'I' for Inactive)
REMARK       I    between atoms: C1_4  and  N3_6 
REMARK    1  A    between atoms: N3_6  and  C2_8 
REMARK    2  A    between atoms: C2_8  and  C3_9 
REMARK    3  A    between atoms: C3_9  and  C4_10 
REMARK    4  A    between atoms: C4_10  and  C5_11 
REMARK    5  A    between atoms: C5_11  and  N4_12 
REMARK    6  A    between atoms: C5_11  and  C6_16 
REMARK       I    between atoms: C6_16  and  N5_18 
REMARK    7  A    between atoms: N5_18  and  C7_20 
REMARK    8  A    between atoms: C7_20  and  C8_21 
REMARK    9  A    between atoms: C7_20  and  N11_38 
REMARK       I    between atoms: C8_21  and  N6_23 
REMARK   10  A    between atoms: N6_23  and  C9_25 
REMARK   11  A    between atoms: C13_29  and  C14_30 
REMARK   12  A    between atoms: N11_38  and  C22_45 
REMARK   13  A    between atoms: C16_39  and  C17_40 
REMARK   14  A    between atoms: C17_40  and  C18_41 
REMARK   15  A    between atoms: C22_45  and  C23_46 
ROOT
HETATM    1  C7  UNL     1     -14.173  -8.903  22.318  1.00  0.00     0.182 C 
ENDROOT
BRANCH   1   2
HETATM    2  N5  UNL     1     -14.440 -10.208  21.875  1.00  0.00    -0.306 N 
HETATM    3  C6  UNL     1     -13.861 -11.343  22.480  1.00  0.00     0.254 C 
HETATM    4  O1  UNL     1     -13.054 -11.143  23.448  1.00  0.00    -0.271 OA
ATOM      5  H5  UNL     1     -15.074 -10.341  21.088  1.00  0.00     0.170 HD
BRANCH   3   6
HETATM    6  C5  UNL     1     -14.151 -12.740  22.047  1.00  0.00     0.275 C 
BRANCH   6   7
HETATM    7  C4  UNL     1     -15.471 -13.167  22.598  1.00  0.00     0.044 C 
BRANCH   7   8
HETATM    8  C3  UNL     1     -15.486 -13.958  23.849  1.00  0.00     0.022 C 
BRANCH   8   9
HETATM    9  C2  UNL     1     -15.781 -13.230  25.106  1.00  0.00     0.122 C 
BRANCH   9  10
HETATM   10  N3  UNL     1     -14.510 -13.018  25.835  1.00  0.00    -0.365 N 
HETATM   11  C1  UNL     1     -14.470 -12.900  27.238  1.00  0.00     0.181 C 
HETATM   12  N1  UNL     1     -15.538 -12.641  27.907  1.00  0.00    -0.374 N 
HETATM   13  N2  UNL     1     -13.230 -13.065  27.917  1.00  0.00    -0.064 NA
ATOM     14  H12 UNL     1     -15.509 -12.555  28.923  1.00  0.00     0.158 HD
ATOM     15  H11 UNL     1     -16.427 -12.523  27.420  1.00  0.00     0.158 HD
ATOM     16  H3  UNL     1     -13.640 -12.956  25.307  1.00  0.00     0.162 HD
ENDBRANCH   9  10
ENDBRANCH   8   9
ENDBRANCH   7   8
ENDBRANCH   6   7
BRANCH   6  17
HETATM   17  N4  UNL     1     -13.119 -13.668  22.433  1.00  0.00    -0.066 N 
ATOM     18  H43 UNL     1     -12.625 -13.359  23.269  1.00  0.00     0.275 HD
ATOM     19  H42 UNL     1     -13.508 -14.537  22.798  1.00  0.00     0.275 HD
ATOM     20  H41 UNL     1     -12.480 -13.836  21.655  1.00  0.00     0.275 HD
ENDBRANCH   6  17
ENDBRANCH   3   6
ENDBRANCH   1   2
BRANCH   1  21
HETATM   21  C8  UNL     1     -13.293  -8.164  21.396  1.00  0.00     0.286 C 
HETATM   22  O2  UNL     1     -12.107  -7.959  21.765  1.00  0.00    -0.264 OA
HETATM   23  N6  UNL     1     -13.742  -7.685  20.116  1.00  0.00    -0.350 N 
ATOM     24  H6  UNL     1     -14.700  -7.854  19.809  1.00  0.00     0.163 HD
BRANCH  23  25
HETATM   25  C9  UNL     1     -12.819  -6.958  19.268  1.00  0.00     0.085 C 
HETATM   26  C10 UNL     1     -12.024  -7.947  18.429  1.00  0.00     0.025 C 
HETATM   27  C11 UNL     1     -11.324  -7.258  17.285  1.00  0.00     0.003 C 
HETATM   28  C12 UNL     1     -12.245  -6.422  16.460  1.00  0.00     0.012 C 
HETATM   29  C13 UNL     1     -12.798  -5.327  17.337  1.00  0.00     0.057 C 
HETATM   30  C15 UNL     1     -13.539  -5.952  18.474  1.00  0.00     0.037 C 
BRANCH  29  31
HETATM   31  C14 UNL     1     -13.731  -4.454  16.601  1.00  0.00     0.111 A 
HETATM   32  N7  UNL     1     -13.848  -3.138  16.802  1.00  0.00    -0.274 N 
HETATM   33  N8  UNL     1     -14.778  -2.641  15.971  1.00  0.00    -0.007 NA
ATOM     34  H7  UNL     1     -13.314  -2.596  17.482  1.00  0.00     0.185 HD
HETATM   35  N9  UNL     1     -15.239  -3.660  15.246  1.00  0.00    -0.007 NA
HETATM   36  N10 UNL     1     -14.597  -4.772  15.632  1.00  0.00    -0.274 N 
ATOM     37  H10 UNL     1     -14.745  -5.706  15.250  1.00  0.00     0.185 HD
ENDBRANCH  29  31
ENDBRANCH  23  25
ENDBRANCH   1  21
BRANCH   1  38
HETATM   38  N11 UNL     1     -15.258  -8.124  22.870  1.00  0.00    -0.322 N 
HETATM   39  C16 UNL     1     -16.477  -8.705  23.076  1.00  0.00     0.071 C 
BRANCH  39  40
HETATM   40  C17 UNL     1     -16.652  -9.812  24.090  1.00  0.00     0.049 C 
BRANCH  40  41
HETATM   41  C18 UNL     1     -17.210  -9.292  25.389  1.00  0.00    -0.010 C 
HETATM   42  C19 UNL     1     -18.431  -9.950  25.932  1.00  0.00     0.005 C 
HETATM   43  C20 UNL     1     -19.241  -8.903  25.139  1.00  0.00     0.001 C 
HETATM   44  C21 UNL     1     -17.996  -8.015  25.291  1.00  0.00     0.005 C 
ENDBRANCH  40  41
ENDBRANCH  39  40
BRANCH  38  45
HETATM   45  C22 UNL     1     -14.695  -7.084  23.608  1.00  0.00     0.075 C 
BRANCH  45  46
HETATM   46  C23 UNL     1     -13.943  -7.224  24.853  1.00  0.00     0.025 C 
HETATM   47  C24 UNL     1     -13.755  -8.522  25.545  1.00  0.00     0.010 C 
HETATM   48  C25 UNL     1     -14.056  -7.869  26.895  1.00  0.00     0.001 C 
HETATM   49  C26 UNL     1     -14.586  -6.688  26.126  1.00  0.00     0.010 C 
ENDBRANCH  45  46
ENDBRANCH  38  45
ENDBRANCH   1  38
TORSDOF 15
ENDMDL
MODEL 3
REMARK VINA RESULT: -9.353531479      1.044      1.486
REMARK  15 active torsions:
REMARK  status: ('A' for Active; 'I' for Inactive)
REMARK       I    between atoms: C1_4  and  N3_6 
REMARK    1  A    between atoms: N3_6  and  C2_8 
REMARK    2  A    between atoms: C2_8  and  C3_9 
REMARK    3  A    between atoms: C3_9  and  C4_10 
REMARK    4  A    between atoms: C4_10  and  C5_11 
REMARK    5  A    between atoms: C5_11  and  N4_12 
REMARK    6  A    between atoms: C5_11  and  C6_16 
REMARK       I    between atoms: C6_16  and  N5_18 
REMARK    7  A    between atoms: N5_18  and  C7_20 
REMARK    8  A    between atoms: C7_20  and  C8_21 
REMARK    9  A    between atoms: C7_20  and  N11_38 
REMARK       I    between atoms: C8_21  and  N6_23 
REMARK   10  A    between atoms: N6_23  and  C9_25 
REMARK   11  A    between atoms: C13_29  and  C14_30 
REMARK   12  A    between atoms: N11_38  and  C22_45 
REMARK   13  A    between atoms: C16_39  and  C17_40 
REMARK   14  A    between atoms: C17_40  and  C18_41 
REMARK   15  A    between atoms: C22_45  and  C23_46 
ROOT
HETATM    1  C7  UNL     1     -14.240  -8.617  21.941  1.00  0.00     0.182 C 
ENDROOT
BRANCH   1   2
HETATM    2  N5  UNL     1     -13.404  -8.126  20.925  1.00  0.00    -0.306 N 
HETATM    3  C6  UNL     1     -13.856  -7.211  19.954  1.00  0.00     0.254 C 
HETATM    4  O1  UNL     1     -15.079  -6.850  20.012  1.00  0.00    -0.271 OA
ATOM      5  H5  UNL     1     -12.435  -8.443  20.890  1.00  0.00     0.170 HD
BRANCH   3   6
HETATM    6  C5  UNL     1     -12.981  -6.652  18.883  1.00  0.00     0.275 C 
BRANCH   6   7
HETATM    7  C4  UNL     1     -13.524  -7.038  17.547  1.00  0.00     0.044 C 
BRANCH   7   8
HETATM    8  C3  UNL     1     -13.934  -5.960  16.619  1.00  0.00     0.022 C 
BRANCH   8   9
HETATM    9  C2  UNL     1     -13.940  -4.576  17.152  1.00  0.00     0.122 C 
BRANCH   9  10
HETATM   10  N3  UNL     1     -12.799  -3.840  16.562  1.00  0.00    -0.365 N 
HETATM   11  C1  UNL     1     -11.691  -3.444  17.335  1.00  0.00     0.181 C 
HETATM   12  N1  UNL     1     -11.765  -3.406  18.619  1.00  0.00    -0.374 N 
HETATM   13  N2  UNL     1     -10.480  -3.078  16.683  1.00  0.00    -0.064 NA
ATOM     14  H12 UNL     1     -10.963  -3.119  19.180  1.00  0.00     0.158 HD
ATOM     15  H11 UNL     1     -12.633  -3.669  19.086  1.00  0.00     0.158 HD
ATOM     16  H3  UNL     1     -12.816  -3.614  15.567  1.00  0.00     0.162 HD
ENDBRANCH   9  10
ENDBRANCH   8   9
ENDBRANCH   7   8
ENDBRANCH   6   7
BRANCH   6  17
HETATM   17  N4  UNL     1     -11.608  -7.070  19.010  1.00  0.00    -0.066 N 
ATOM     18  H43 UNL     1     -11.462  -7.640  19.843  1.00  0.00     0.275 HD
ATOM     19  H42 UNL     1     -11.357  -7.763  18.306  1.00  0.00     0.275 HD
ATOM     20  H41 UNL     1     -10.985  -6.263  18.989  1.00  0.00     0.275 HD
ENDBRANCH   6  17
ENDBRANCH   3   6
ENDBRANCH   1   2
BRANCH   1  21
HETATM   21  C8  UNL     1     -14.029 -10.051  22.201  1.00  0.00     0.286 C 
HETATM   22  O2  UNL     1     -12.843 -10.444  22.355  1.00  0.00    -0.264 OA
HETATM   23  N6  UNL     1     -15.114 -10.991  22.283  1.00  0.00    -0.350 N 
ATOM     24  H6  UNL     1     -16.078 -10.677  22.166  1.00  0.00     0.163 HD
BRANCH  23  25
HETATM   25  C9  UNL     1     -14.825 -12.388  22.534  1.00  0.00     0.085 C 
HETATM   26  C10 UNL     1     -15.455 -12.801  23.856  1.00  0.00     0.025 C 
HETATM   27  C11 UNL     1     -15.505 -14.302  23.995  1.00  0.00     0.003 C 
HETATM   28  C12 UNL     1     -16.146 -14.972  22.825  1.00  0.00     0.012 C 
HETATM   29  C13 UNL     1     -15.306 -14.689  21.605  1.00  0.00     0.057 C 
HETATM   30  C15 UNL     1     -15.251 -13.212  21.393  1.00  0.00     0.037 C 
BRANCH  29  31
HETATM   31  C14 UNL     1     -15.875 -15.309  20.394  1.00  0.00     0.111 A 
HETATM   32  N7  UNL     1     -17.109 -15.818  20.317  1.00  0.00    -0.274 N 
HETATM   33  N8  UNL     1     -17.316 -16.300  19.081  1.00  0.00    -0.007 NA
ATOM     34  H7  UNL     1     -17.787 -15.836  21.079  1.00  0.00     0.185 HD
HETATM   35  N9  UNL     1     -16.200 -16.086  18.385  1.00  0.00    -0.007 NA
HETATM   36  N10 UNL     1     -15.316 -15.478  19.190  1.00  0.00    -0.274 N 
ATOM     37  H10 UNL     1     -14.373 -15.192  18.928  1.00  0.00     0.185 HD
ENDBRANCH  29  31
ENDBRANCH  23  25
ENDBRANCH   1  21
BRANCH   1  38
HETATM   38  N11 UNL     1     -14.435  -7.812  23.126  1.00  0.00    -0.322 N 
HETATM   39  C16 UNL     1     -15.698  -7.595  23.600  1.00  0.00     0.071 C 
BRANCH  39  40
HETATM   40  C17 UNL     1     -16.536  -8.731  24.138  1.00  0.00     0.049 C 
BRANCH  40  41
HETATM   41  C18 UNL     1     -17.821  -8.233  24.747  1.00  0.00    -0.010 C 
HETATM   42  C19 UNL     1     -17.744  -7.564  26.077  1.00  0.00     0.005 C 
HETATM   43  C20 UNL     1     -17.966  -8.961  26.694  1.00  0.00     0.001 C 
HETATM   44  C21 UNL     1     -18.689  -9.285  25.377  1.00  0.00     0.005 C 
ENDBRANCH  40  41
ENDBRANCH  39  40
BRANCH  38  45
HETATM   45  C22 UNL     1     -13.263  -7.881  23.878  1.00  0.00     0.075 C 
BRANCH  45  46
HETATM   46  C23 UNL     1     -13.172  -7.815  25.334  1.00  0.00     0.025 C 
HETATM   47  C24 UNL     1     -13.788  -8.822  26.231  1.00  0.00     0.010 C 
HETATM   48  C25 UNL     1     -14.310  -7.716  27.149  1.00  0.00     0.001 C 
HETATM   49  C26 UNL     1     -13.996  -6.746  26.041  1.00  0.00     0.010 C 
ENDBRANCH  45  46
ENDBRANCH  38  45
ENDBRANCH   1  38
TORSDOF 15
ENDMDL
MODEL 4
REMARK VINA RESULT: -9.296588027      2.792      9.468
REMARK  15 active torsions:
REMARK  status: ('A' for Active; 'I' for Inactive)
REMARK       I    between atoms: C1_4  and  N3_6 
REMARK    1  A    between atoms: N3_6  and  C2_8 
REMARK    2  A    between atoms: C2_8  and  C3_9 
REMARK    3  A    between atoms: C3_9  and  C4_10 
REMARK    4  A    between atoms: C4_10  and  C5_11 
REMARK    5  A    between atoms: C5_11  and  N4_12 
REMARK    6  A    between atoms: C5_11  and  C6_16 
REMARK       I    between atoms: C6_16  and  N5_18 
REMARK    7  A    between atoms: N5_18  and  C7_20 
REMARK    8  A    between atoms: C7_20  and  C8_21 
REMARK    9  A    between atoms: C7_20  and  N11_38 
REMARK       I    between atoms: C8_21  and  N6_23 
REMARK   10  A    between atoms: N6_23  and  C9_25 
REMARK   11  A    between atoms: C13_29  and  C14_30 
REMARK   12  A    between atoms: N11_38  and  C22_45 
REMARK   13  A    between atoms: C16_39  and  C17_40 
REMARK   14  A    between atoms: C17_40  and  C18_41 
REMARK   15  A    between atoms: C22_45  and  C23_46 
ROOT
HETATM    1  C7  UNL     1     -14.215  -7.970  21.553  1.00  0.00     0.182 C 
ENDROOT
BRANCH   1   2
HETATM    2  N5  UNL     1     -13.472  -8.153  22.729  1.00  0.00    -0.306 N 
HETATM    3  C6  UNL     1     -13.795  -7.498  23.935  1.00  0.00     0.254 C 
HETATM    4  O1  UNL     1     -14.792  -6.700  23.920  1.00  0.00    -0.271 OA
ATOM      5  H5  UNL     1     -12.669  -8.782  22.712  1.00  0.00     0.170 HD
BRANCH   3   6
HETATM    6  C5  UNL     1     -13.040  -7.698  25.205  1.00  0.00     0.275 C 
BRANCH   6   7
HETATM    7  C4  UNL     1     -13.756  -7.012  26.321  1.00  0.00     0.044 C 
BRANCH   7   8
HETATM    8  C3  UNL     1     -14.631  -7.824  27.197  1.00  0.00     0.022 C 
BRANCH   8   9
HETATM    9  C2  UNL     1     -14.159  -9.185  27.548  1.00  0.00     0.122 C 
BRANCH   9  10
HETATM   10  N3  UNL     1     -15.315  -9.973  28.033  1.00  0.00    -0.365 N 
HETATM   11  C1  UNL     1     -15.391 -11.368  27.855  1.00  0.00     0.181 C 
HETATM   12  N1  UNL     1     -14.642 -11.962  26.992  1.00  0.00    -0.374 N 
HETATM   13  N2  UNL     1     -16.309 -12.123  28.636  1.00  0.00    -0.064 NA
ATOM     14  H12 UNL     1     -14.697 -12.972  26.863  1.00  0.00     0.158 HD
ATOM     15  H11 UNL     1     -13.984 -11.420  26.432  1.00  0.00     0.158 HD
ATOM     16  H3  UNL     1     -16.078  -9.492  28.510  1.00  0.00     0.162 HD
ENDBRANCH   9  10
ENDBRANCH   8   9
ENDBRANCH   7   8
ENDBRANCH   6   7
BRANCH   6  17
HETATM   17  N4  UNL     1     -11.678  -7.239  25.122  1.00  0.00    -0.066 N 
ATOM     18  H43 UNL     1     -11.452  -6.889  24.190  1.00  0.00     0.275 HD
ATOM     19  H42 UNL     1     -11.536  -6.376  25.646  1.00  0.00     0.275 HD
ATOM     20  H41 UNL     1     -11.033  -7.972  25.417  1.00  0.00     0.275 HD
ENDBRANCH   6  17
ENDBRANCH   3   6
ENDBRANCH   1   2
BRANCH   1  21
HETATM   21  C8  UNL     1     -13.416  -7.372  20.469  1.00  0.00     0.286 C 
HETATM   22  O2  UNL     1     -12.183  -7.623  20.451  1.00  0.00    -0.264 OA
HETATM   23  N6  UNL     1     -13.994  -6.532  19.454  1.00  0.00    -0.350 N 
ATOM     24  H6  UNL     1     -14.994  -6.331  19.460  1.00  0.00     0.163 HD
BRANCH  23  25
HETATM   25  C9  UNL     1     -13.141  -5.974  18.425  1.00  0.00     0.085 C 
HETATM   26  C10 UNL     1     -13.021  -6.968  17.279  1.00  0.00     0.025 C 
HETATM   27  C11 UNL     1     -12.461  -6.314  16.042  1.00  0.00     0.003 C 
HETATM   28  C12 UNL     1     -13.204  -5.080  15.650  1.00  0.00     0.012 C 
HETATM   29  C13 UNL     1     -13.060  -4.072  16.763  1.00  0.00     0.057 C 
HETATM   30  C15 UNL     1     -13.635  -4.652  18.013  1.00  0.00     0.037 C 
BRANCH  29  31
HETATM   31  C14 UNL     1     -13.776  -2.819  16.462  1.00  0.00     0.111 A 
HETATM   32  N7  UNL     1     -14.751  -2.708  15.554  1.00  0.00    -0.274 N 
HETATM   33  N8  UNL     1     -15.194  -1.441  15.527  1.00  0.00    -0.007 NA
ATOM     34  H7  UNL     1     -15.103  -3.468  14.972  1.00  0.00     0.185 HD
HETATM   35  N9  UNL     1     -14.487  -0.761  16.429  1.00  0.00    -0.007 NA
HETATM   36  N10 UNL     1     -13.617  -1.605  17.003  1.00  0.00    -0.274 N 
ATOM     37  H10 UNL     1     -12.946  -1.363  17.731  1.00  0.00     0.185 HD
ENDBRANCH  29  31
ENDBRANCH  23  25
ENDBRANCH   1  21
BRANCH   1  38
HETATM   38  N11 UNL     1     -15.112  -9.022  21.130  1.00  0.00    -0.322 N 
HETATM   39  C16 UNL     1     -14.607 -10.225  20.726  1.00  0.00     0.071 C 
BRANCH  39  40
HETATM   40  C17 UNL     1     -13.877 -11.129  21.693  1.00  0.00     0.049 C 
BRANCH  40  41
HETATM   41  C18 UNL     1     -14.149 -12.583  21.408  1.00  0.00    -0.010 C 
HETATM   42  C19 UNL     1     -15.559 -13.056  21.504  1.00  0.00     0.005 C 
HETATM   43  C20 UNL     1     -15.257 -13.379  22.983  1.00  0.00     0.001 C 
HETATM   44  C21 UNL     1     -13.802 -13.536  22.516  1.00  0.00     0.005 C 
ENDBRANCH  40  41
ENDBRANCH  39  40
BRANCH  38  45
HETATM   45  C22 UNL     1     -16.342  -8.799  21.748  1.00  0.00     0.075 C 
BRANCH  45  46
HETATM   46  C23 UNL     1     -16.900  -9.576  22.853  1.00  0.00     0.025 C 
HETATM   47  C24 UNL     1     -17.819  -9.002  23.865  1.00  0.00     0.010 C 
HETATM   48  C25 UNL     1     -17.057  -9.707  24.987  1.00  0.00     0.001 C 
HETATM   49  C26 UNL     1     -15.958  -9.958  23.989  1.00  0.00     0.010 C 
ENDBRANCH  45  46
ENDBRANCH  38  45
ENDBRANCH   1  38
TORSDOF 15
ENDMDL
MODEL 5
REMARK VINA RESULT: -9.245137363      4.123      8.908
REMARK  15 active torsions:
REMARK  status: ('A' for Active; 'I' for Inactive)
REMARK       I    between atoms: C1_4  and  N3_6 
REMARK    1  A    between atoms: N3_6  and  C2_8 
REMARK    2  A    between atoms: C2_8  and  C3_9 
REMARK    3  A    between atoms: C3_9  and  C4_10 
REMARK    4  A    between atoms: C4_10  and  C5_11 
REMARK    5  A    between atoms: C5_11  and  N4_12 
REMARK    6  A    between atoms: C5_11  and  C6_16 
REMARK       I    between atoms: C6_16  and  N5_18 
REMARK    7  A    between atoms: N5_18  and  C7_20 
REMARK    8  A    between atoms: C7_20  and  C8_21 
REMARK    9  A    between atoms: C7_20  and  N11_38 
REMARK       I    between atoms: C8_21  and  N6_23 
REMARK   10  A    between atoms: N6_23  and  C9_25 
REMARK   11  A    between atoms: C13_29  and  C14_30 
REMARK   12  A    between atoms: N11_38  and  C22_45 
REMARK   13  A    between atoms: C16_39  and  C17_40 
REMARK   14  A    between atoms: C17_40  and  C18_41 
REMARK   15  A    between atoms: C22_45  and  C23_46 
ROOT
HETATM    1  C7  UNL     1     -15.785 -12.368  25.774  1.00  0.00     0.182 C 
ENDROOT
BRANCH   1   2
HETATM    2  N5  UNL     1     -16.155 -12.266  27.124  1.00  0.00    -0.306 N 
HETATM    3  C6  UNL     1     -17.479 -11.991  27.524  1.00  0.00     0.254 C 
HETATM    4  O1  UNL     1     -18.344 -11.812  26.602  1.00  0.00    -0.271 OA
ATOM      5  H5  UNL     1     -15.442 -12.395  27.842  1.00  0.00     0.170 HD
BRANCH   3   6
HETATM    6  C5  UNL     1     -17.904 -11.906  28.951  1.00  0.00     0.275 C 
BRANCH   6   7
HETATM    7  C4  UNL     1     -17.695 -10.514  29.449  1.00  0.00     0.044 C 
BRANCH   7   8
HETATM    8  C3  UNL     1     -18.759  -9.515  29.203  1.00  0.00     0.022 C 
BRANCH   8   9
HETATM    9  C2  UNL     1     -18.417  -8.366  28.330  1.00  0.00     0.122 C 
BRANCH   9  10
HETATM   10  N3  UNL     1     -18.638  -8.764  26.921  1.00  0.00    -0.365 N 
HETATM   11  C1  UNL     1     -18.050  -8.064  25.850  1.00  0.00     0.181 C 
HETATM   12  N1  UNL     1     -17.578  -6.879  26.020  1.00  0.00    -0.374 N 
HETATM   13  N2  UNL     1     -17.982  -8.678  24.568  1.00  0.00    -0.064 NA
ATOM     14  H12 UNL     1     -17.152  -6.371  25.245  1.00  0.00     0.158 HD
ATOM     15  H11 UNL     1     -17.627  -6.439  26.939  1.00  0.00     0.158 HD
ATOM     16  H3  UNL     1     -19.233  -9.568  26.721  1.00  0.00     0.162 HD
ENDBRANCH   9  10
ENDBRANCH   8   9
ENDBRANCH   7   8
ENDBRANCH   6   7
BRANCH   6  17
HETATM   17  N4  UNL     1     -17.220 -12.852  29.793  1.00  0.00    -0.066 N 
ATOM     18  H43 UNL     1     -16.235 -12.938  29.544  1.00  0.00     0.275 HD
ATOM     19  H42 UNL     1     -17.106 -12.500  30.743  1.00  0.00     0.275 HD
ATOM     20  H41 UNL     1     -17.695 -13.755  29.778  1.00  0.00     0.275 HD
ENDBRANCH   6  17
ENDBRANCH   3   6
ENDBRANCH   1   2
BRANCH   1  21
HETATM   21  C8  UNL     1     -15.288 -11.094  25.228  1.00  0.00     0.286 C 
HETATM   22  O2  UNL     1     -15.280 -10.962  23.976  1.00  0.00    -0.264 OA
HETATM   23  N6  UNL     1     -14.824 -10.021  26.067  1.00  0.00    -0.350 N 
ATOM     24  H6  UNL     1     -14.835 -10.119  27.083  1.00  0.00     0.163 HD
BRANCH  23  25
HETATM   25  C9  UNL     1     -14.342  -8.800  25.455  1.00  0.00     0.085 C 
HETATM   26  C10 UNL     1     -13.048  -8.376  26.133  1.00  0.00     0.025 C 
HETATM   27  C11 UNL     1     -12.315  -7.340  25.318  1.00  0.00     0.003 C 
HETATM   28  C12 UNL     1     -12.105  -7.759  23.901  1.00  0.00     0.012 C 
HETATM   29  C13 UNL     1     -13.458  -7.925  23.255  1.00  0.00     0.057 C 
HETATM   30  C15 UNL     1     -14.219  -8.971  24.000  1.00  0.00     0.037 C 
BRANCH  29  31
HETATM   31  C14 UNL     1     -13.343  -8.349  21.847  1.00  0.00     0.111 A 
HETATM   32  N7  UNL     1     -12.588  -7.731  20.934  1.00  0.00    -0.274 N 
HETATM   33  N8  UNL     1     -12.702  -8.368  19.757  1.00  0.00    -0.007 NA
ATOM     34  H7  UNL     1     -12.015  -6.905  21.104  1.00  0.00     0.185 HD
HETATM   35  N9  UNL     1     -13.534  -9.392  19.945  1.00  0.00    -0.007 NA
HETATM   36  N10 UNL     1     -13.927  -9.381  21.227  1.00  0.00    -0.274 N 
ATOM     37  H10 UNL     1     -14.566 -10.049  21.658  1.00  0.00     0.185 HD
ENDBRANCH  29  31
ENDBRANCH  23  25
ENDBRANCH   1  21
BRANCH   1  38
HETATM   38  N11 UNL     1     -15.048 -13.536  25.345  1.00  0.00    -0.322 N 
HETATM   39  C16 UNL     1     -15.637 -14.444  24.513  1.00  0.00     0.071 C 
BRANCH  39  40
HETATM   40  C17 UNL     1     -16.023 -14.072  23.100  1.00  0.00     0.049 C 
BRANCH  40  41
HETATM   41  C18 UNL     1     -16.276 -15.293  22.254  1.00  0.00    -0.010 C 
HETATM   42  C19 UNL     1     -15.155 -15.795  21.409  1.00  0.00     0.005 C 
HETATM   43  C20 UNL     1     -15.703 -14.880  20.294  1.00  0.00     0.001 C 
HETATM   44  C21 UNL     1     -17.059 -15.056  20.994  1.00  0.00     0.005 C 
ENDBRANCH  40  41
ENDBRANCH  39  40
BRANCH  38  45
HETATM   45  C22 UNL     1     -13.691 -13.223  25.411  1.00  0.00     0.075 C 
BRANCH  45  46
HETATM   46  C23 UNL     1     -12.594 -14.051  24.915  1.00  0.00     0.025 C 
HETATM   47  C24 UNL     1     -12.310 -14.242  23.472  1.00  0.00     0.010 C 
HETATM   48  C25 UNL     1     -12.101 -15.741  23.691  1.00  0.00     0.001 C 
HETATM   49  C26 UNL     1     -12.743 -15.562  25.041  1.00  0.00     0.010 C 
ENDBRANCH  45  46
ENDBRANCH  38  45
ENDBRANCH   1  38
TORSDOF 15
ENDMDL
