MODEL 1
REMARK VINA RESULT: -5.987105470      0.000      0.000
REMARK  2 active torsions:
REMARK  status: ('A' for Active; 'I' for Inactive)
REMARK    1  A    between atoms: C1_4  and  O1_5 
REMARK    2  A    between atoms: C1_4  and  N2_7 
ROOT
HETATM    1  N2  UNL     1      65.788  63.353-123.868  1.00  0.00    -0.338 N 
HETATM    2  C2  UNL     1      64.723  62.913-122.984  1.00  0.00     0.088 C 
HETATM    3  C3  UNL     1      63.862  61.970-123.820  1.00  0.00     0.025 C 
HETATM    4  C4  UNL     1      64.664  60.718-124.076  1.00  0.00     0.004 C 
HETATM    5  C5  UNL     1      65.960  61.114-124.729  1.00  0.00     0.025 C 
HETATM    6  C6  UNL     1      66.677  62.202-123.963  1.00  0.00     0.088 C 
HETATM    7  C7  UNL     1      66.841  61.834-122.506  1.00  0.00     0.027 C 
HETATM    8  C8  UNL     1      65.484  62.164-121.918  1.00  0.00     0.027 C 
ENDROOT
BRANCH   1   9
HETATM    9  C1  UNL     1      65.902  64.621-124.478  1.00  0.00     0.213 C 
HETATM   10  N1  UNL     1      65.729  65.695-123.815  1.00  0.00    -0.365 N 
ATOM     11  H12 UNL     1      65.812  66.611-124.255  1.00  0.00     0.159 HD
ATOM     12  H11 UNL     1      65.502  65.634-122.822  1.00  0.00     0.159 HD
BRANCH   9  13
HETATM   13  O1  UNL     1      66.211  64.703-125.825  1.00  0.00    -0.333 OA
ATOM     14  H1  UNL     1      65.705  65.284-126.381  1.00  0.00     0.220 HD
ENDBRANCH   9  13
ENDBRANCH   1   9
TORSDOF 2
ENDMDL
MODEL 2
REMARK VINA RESULT: -5.805017843      0.663      2.406
REMARK  2 active torsions:
REMARK  status: ('A' for Active; 'I' for Inactive)
REMARK    1  A    between atoms: C1_4  and  O1_5 
REMARK    2  A    between atoms: C1_4  and  N2_7 
ROOT
HETATM    1  N2  UNL     1      65.797  63.535-124.245  1.00  0.00    -0.338 N 
HETATM    2  C2  UNL     1      66.782  62.506-124.524  1.00  0.00     0.088 C 
HETATM    3  C3  UNL     1      67.748  62.534-123.343  1.00  0.00     0.025 C 
HETATM    4  C4  UNL     1      67.011  62.016-122.132  1.00  0.00     0.004 C 
HETATM    5  C5  UNL     1      65.774  62.851-121.939  1.00  0.00     0.025 C 
HETATM    6  C6  UNL     1      64.955  62.957-123.206  1.00  0.00     0.088 C 
HETATM    7  C7  UNL     1      64.659  61.594-123.787  1.00  0.00     0.027 C 
HETATM    8  C8  UNL     1      65.942  61.253-124.518  1.00  0.00     0.027 C 
ENDROOT
BRANCH   1   9
HETATM    9  C1  UNL     1      65.706  64.800-124.866  1.00  0.00     0.213 C 
HETATM   10  N1  UNL     1      65.189  65.798-124.265  1.00  0.00    -0.365 N 
ATOM     11  H12 UNL     1      65.124  66.712-124.713  1.00  0.00     0.159 HD
ATOM     12  H11 UNL     1      64.833  65.678-123.316  1.00  0.00     0.159 HD
BRANCH   9  13
HETATM   13  O1  UNL     1      66.189  64.964-126.153  1.00  0.00    -0.333 OA
ATOM     14  H1  UNL     1      66.855  64.368-126.476  1.00  0.00     0.220 HD
ENDBRANCH   9  13
ENDBRANCH   1   9
TORSDOF 2
ENDMDL
MODEL 3
REMARK VINA RESULT: -5.769698373      0.778      1.992
REMARK  2 active torsions:
REMARK  status: ('A' for Active; 'I' for Inactive)
REMARK    1  A    between atoms: C1_4  and  O1_5 
REMARK    2  A    between atoms: C1_4  and  N2_7 
ROOT
HETATM    1  N2  UNL     1      65.577  63.412-124.202  1.00  0.00    -0.338 N 
HETATM    2  C2  UNL     1      66.405  62.643-123.291  1.00  0.00     0.088 C 
HETATM    3  C3  UNL     1      65.645  62.620-121.968  1.00  0.00     0.025 C 
HETATM    4  C4  UNL     1      64.418  61.763-122.155  1.00  0.00     0.004 C 
HETATM    5  C5  UNL     1      63.629  62.315-123.312  1.00  0.00     0.025 C 
HETATM    6  C6  UNL     1      64.484  62.510-124.544  1.00  0.00     0.088 C 
HETATM    7  C7  UNL     1      65.239  61.249-124.896  1.00  0.00     0.027 C 
HETATM    8  C8  UNL     1      66.416  61.282-123.943  1.00  0.00     0.027 C 
ENDROOT
BRANCH   1   9
HETATM    9  C1  UNL     1      65.811  64.734-124.637  1.00  0.00     0.213 C 
HETATM   10  N1  UNL     1      65.659  65.727-123.854  1.00  0.00    -0.365 N 
ATOM     11  H12 UNL     1      65.829  66.682-124.169  1.00  0.00     0.159 HD
ATOM     12  H11 UNL     1      65.360  65.561-122.893  1.00  0.00     0.159 HD
BRANCH   9  13
HETATM   13  O1  UNL     1      66.217  64.959-125.942  1.00  0.00    -0.333 OA
ATOM     14  H1  UNL     1      66.272  65.852-126.261  1.00  0.00     0.220 HD
ENDBRANCH   9  13
ENDBRANCH   1   9
TORSDOF 2
ENDMDL
MODEL 4
REMARK VINA RESULT: -5.739788964      1.903      2.961
REMARK  2 active torsions:
REMARK  status: ('A' for Active; 'I' for Inactive)
REMARK    1  A    between atoms: C1_4  and  O1_5 
REMARK    2  A    between atoms: C1_4  and  N2_7 
ROOT
HETATM    1  N2  UNL     1      65.867  62.101-123.300  1.00  0.00    -0.338 N 
HETATM    2  C2  UNL     1      65.332  61.566-124.540  1.00  0.00     0.088 C 
HETATM    3  C3  UNL     1      64.713  60.222-124.171  1.00  0.00     0.025 C 
HETATM    4  C4  UNL     1      63.488  60.492-123.332  1.00  0.00     0.004 C 
HETATM    5  C5  UNL     1      63.900  61.328-122.151  1.00  0.00     0.025 C 
HETATM    6  C6  UNL     1      64.692  62.549-122.564  1.00  0.00     0.088 C 
HETATM    7  C7  UNL     1      63.964  63.345-123.622  1.00  0.00     0.027 C 
HETATM    8  C8  UNL     1      64.273  62.582-124.893  1.00  0.00     0.027 C 
ENDROOT
BRANCH   1   9
HETATM    9  C1  UNL     1      67.228  62.160-122.929  1.00  0.00     0.213 C 
HETATM   10  N1  UNL     1      67.598  61.946-121.729  1.00  0.00    -0.365 N 
ATOM     11  H12 UNL     1      68.581  61.988-121.461  1.00  0.00     0.159 HD
ATOM     12  H11 UNL     1      66.893  61.730-121.022  1.00  0.00     0.159 HD
BRANCH   9  13
HETATM   13  O1  UNL     1      68.183  62.453-123.887  1.00  0.00    -0.333 OA
ATOM     14  H1  UNL     1      68.176  61.975-124.708  1.00  0.00     0.220 HD
ENDBRANCH   9  13
ENDBRANCH   1   9
TORSDOF 2
ENDMDL
MODEL 5
REMARK VINA RESULT: -5.668761915      1.229      1.259
REMARK  2 active torsions:
REMARK  status: ('A' for Active; 'I' for Inactive)
REMARK    1  A    between atoms: C1_4  and  O1_5 
REMARK    2  A    between atoms: C1_4  and  N2_7 
ROOT
HETATM    1  N2  UNL     1      65.945  63.651-123.846  1.00  0.00    -0.338 N 
HETATM    2  C2  UNL     1      65.496  63.314-122.507  1.00  0.00     0.088 C 
HETATM    3  C3  UNL     1      64.220  62.499-122.696  1.00  0.00     0.025 C 
HETATM    4  C4  UNL     1      64.606  61.170-123.297  1.00  0.00     0.004 C 
HETATM    5  C5  UNL     1      65.368  61.430-124.568  1.00  0.00     0.025 C 
HETATM    6  C6  UNL     1      66.503  62.408-124.363  1.00  0.00     0.088 C 
HETATM    7  C7  UNL     1      67.395  61.985-123.219  1.00  0.00     0.027 C 
HETATM    8  C8  UNL     1      66.628  62.454-122.000  1.00  0.00     0.027 C 
ENDROOT
BRANCH   1   9
HETATM    9  C1  UNL     1      65.846  64.912-124.472  1.00  0.00     0.213 C 
HETATM   10  N1  UNL     1      65.965  65.038-125.734  1.00  0.00    -0.365 N 
ATOM     11  H12 UNL     1      65.893  65.949-126.186  1.00  0.00     0.159 HD
ATOM     12  H11 UNL     1      66.135  64.208-126.303  1.00  0.00     0.159 HD
BRANCH   9  13
HETATM   13  O1  UNL     1      65.615  66.039-123.701  1.00  0.00    -0.333 OA
ATOM     14  H1  UNL     1      65.606  65.957-122.755  1.00  0.00     0.220 HD
ENDBRANCH   9  13
ENDBRANCH   1   9
TORSDOF 2
ENDMDL
