MODEL 1
REMARK VINA RESULT: -4.763538888      0.000      0.000
REMARK  4 active torsions:
REMARK  status: ('A' for Active; 'I' for Inactive)
REMARK    1  A    between atoms: O1_1  and  C1_3 
REMARK    2  A    between atoms: C1_3  and  C2_4 
REMARK    3  A    between atoms: C2_4  and  O2_5 
REMARK    4  A    between atoms: C2_4  and  C3_7 
ROOT
HETATM    1  C3  UNL     1      19.197   2.019   7.464  1.00  0.00     0.257 C 
HETATM    2  C4  UNL     1      20.291   2.953   7.850  1.00  0.00     0.025 C 
HETATM    3  C5  UNL     1      21.135   2.840   6.569  1.00  0.00     0.037 C 
HETATM    4  C6  UNL     1      20.068   2.575   5.524  1.00  0.00     0.273 C 
HETATM    5  N1  UNL     1      18.773   2.673   6.242  1.00  0.00     0.096 N 
HETATM    6  C7  UNL     1      18.673   4.092   6.621  1.00  0.00     0.273 C 
HETATM    7  C8  UNL     1      19.655   4.318   7.734  1.00  0.00     0.037 C 
ENDROOT
BRANCH   1   8
HETATM    8  C2  UNL     1      18.216   1.593   8.420  1.00  0.00     0.175 C 
BRANCH   8   9
HETATM    9  C1  UNL     1      18.187   2.100   9.805  1.00  0.00     0.198 C 
BRANCH   9  10
HETATM   10  O1  UNL     1      18.657   1.021  10.612  1.00  0.00    -0.398 OA
ATOM     11  H1  UNL     1      18.305   0.235  10.213  1.00  0.00     0.209 HD
ENDBRANCH   9  10
ENDBRANCH   8   9
BRANCH   8  12
HETATM   12  O2  UNL     1      18.283   0.176   8.522  1.00  0.00    -0.391 OA
ATOM     13  H2  UNL     1      18.068  -0.158   7.660  1.00  0.00     0.210 HD
ENDBRANCH   8  12
ENDBRANCH   1   8
TORSDOF 4
ENDMDL
MODEL 2
REMARK VINA RESULT: -4.669671842      3.253      4.139
REMARK  4 active torsions:
REMARK  status: ('A' for Active; 'I' for Inactive)
REMARK    1  A    between atoms: O1_1  and  C1_3 
REMARK    2  A    between atoms: C1_3  and  C2_4 
REMARK    3  A    between atoms: C2_4  and  O2_5 
REMARK    4  A    between atoms: C2_4  and  C3_7 
ROOT
HETATM    1  C3  UNL     1      19.557   4.535   7.132  1.00  0.00     0.257 C 
HETATM    2  C4  UNL     1      20.108   3.850   5.930  1.00  0.00     0.025 C 
HETATM    3  C5  UNL     1      20.978   2.807   6.653  1.00  0.00     0.037 C 
HETATM    4  C6  UNL     1      20.190   2.587   7.931  1.00  0.00     0.273 C 
HETATM    5  N1  UNL     1      18.951   3.388   7.778  1.00  0.00     0.096 N 
HETATM    6  C7  UNL     1      18.218   2.721   6.690  1.00  0.00     0.273 C 
HETATM    7  C8  UNL     1      18.942   3.039   5.414  1.00  0.00     0.037 C 
ENDROOT
BRANCH   1   8
HETATM    8  C2  UNL     1      18.818   5.758   7.013  1.00  0.00     0.175 C 
BRANCH   8   9
HETATM    9  C1  UNL     1      19.083   6.743   5.948  1.00  0.00     0.198 C 
BRANCH   9  10
HETATM   10  O1  UNL     1      20.226   7.476   6.385  1.00  0.00    -0.398 OA
ATOM     11  H1  UNL     1      20.671   7.746   5.591  1.00  0.00     0.209 HD
ENDBRANCH   9  10
ENDBRANCH   8   9
BRANCH   8  12
HETATM   12  O2  UNL     1      18.934   6.467   8.240  1.00  0.00    -0.391 OA
ATOM     13  H2  UNL     1      18.844   5.818   8.927  1.00  0.00     0.210 HD
ENDBRANCH   8  12
ENDBRANCH   1   8
TORSDOF 4
ENDMDL
MODEL 3
REMARK VINA RESULT: -4.618307824      3.275      4.196
REMARK  4 active torsions:
REMARK  status: ('A' for Active; 'I' for Inactive)
REMARK    1  A    between atoms: O1_1  and  C1_3 
REMARK    2  A    between atoms: C1_3  and  C2_4 
REMARK    3  A    between atoms: C2_4  and  O2_5 
REMARK    4  A    between atoms: C2_4  and  C3_7 
ROOT
HETATM    1  C3  UNL     1      19.079   4.285   6.623  1.00  0.00     0.257 C 
HETATM    2  C4  UNL     1      20.035   3.824   7.666  1.00  0.00     0.025 C 
HETATM    3  C5  UNL     1      19.116   2.812   8.372  1.00  0.00     0.037 C 
HETATM    4  C6  UNL     1      18.241   2.344   7.225  1.00  0.00     0.273 C 
HETATM    5  N1  UNL     1      18.786   3.003   6.013  1.00  0.00     0.096 N 
HETATM    6  C7  UNL     1      20.113   2.391   5.831  1.00  0.00     0.273 C 
HETATM    7  C8  UNL     1      21.003   2.948   6.904  1.00  0.00     0.037 C 
ENDROOT
BRANCH   1   8
HETATM    8  C2  UNL     1      19.377   5.416   5.793  1.00  0.00     0.175 C 
BRANCH   8   9
HETATM    9  C1  UNL     1      19.090   6.801   6.209  1.00  0.00     0.198 C 
BRANCH   9  10
HETATM   10  O1  UNL     1      20.361   7.446   6.283  1.00  0.00    -0.398 OA
ATOM     11  H1  UNL     1      20.531   7.562   7.209  1.00  0.00     0.209 HD
ENDBRANCH   9  10
ENDBRANCH   8   9
BRANCH   8  12
HETATM   12  O2  UNL     1      18.718   5.237   4.546  1.00  0.00    -0.391 OA
ATOM     13  H2  UNL     1      19.386   5.344   3.880  1.00  0.00     0.210 HD
ENDBRANCH   8  12
ENDBRANCH   1   8
TORSDOF 4
ENDMDL
MODEL 4
REMARK VINA RESULT: -4.607960897      0.847      1.315
REMARK  4 active torsions:
REMARK  status: ('A' for Active; 'I' for Inactive)
REMARK    1  A    between atoms: O1_1  and  C1_3 
REMARK    2  A    between atoms: C1_3  and  C2_4 
REMARK    3  A    between atoms: C2_4  and  O2_5 
REMARK    4  A    between atoms: C2_4  and  C3_7 
ROOT
HETATM    1  C3  UNL     1      18.809   2.025   7.348  1.00  0.00     0.257 C 
HETATM    2  C4  UNL     1      20.148   2.011   6.697  1.00  0.00     0.025 C 
HETATM    3  C5  UNL     1      19.745   2.653   5.358  1.00  0.00     0.037 C 
HETATM    4  C6  UNL     1      18.604   3.557   5.784  1.00  0.00     0.273 C 
HETATM    5  N1  UNL     1      18.540   3.447   7.263  1.00  0.00     0.096 N 
HETATM    6  C7  UNL     1      19.790   4.068   7.729  1.00  0.00     0.273 C 
HETATM    7  C8  UNL     1      20.902   3.113   7.404  1.00  0.00     0.037 C 
ENDROOT
BRANCH   1   8
HETATM    8  C2  UNL     1      18.578   1.330   8.581  1.00  0.00     0.175 C 
BRANCH   8   9
HETATM    9  C1  UNL     1      18.214   2.028   9.828  1.00  0.00     0.198 C 
BRANCH   9  10
HETATM   10  O1  UNL     1      18.603   1.150  10.882  1.00  0.00    -0.398 OA
ATOM     11  H1  UNL     1      19.192   1.657  11.428  1.00  0.00     0.209 HD
ENDBRANCH   9  10
ENDBRANCH   8   9
BRANCH   8  12
HETATM   12  O2  UNL     1      19.740   0.569   8.884  1.00  0.00    -0.391 OA
ATOM     13  H2  UNL     1      20.120   0.327   8.048  1.00  0.00     0.210 HD
ENDBRANCH   8  12
ENDBRANCH   1   8
TORSDOF 4
ENDMDL
MODEL 5
REMARK VINA RESULT: -4.530295953      3.768      4.655
REMARK  4 active torsions:
REMARK  status: ('A' for Active; 'I' for Inactive)
REMARK    1  A    between atoms: O1_1  and  C1_3 
REMARK    2  A    between atoms: C1_3  and  C2_4 
REMARK    3  A    between atoms: C2_4  and  O2_5 
REMARK    4  A    between atoms: C2_4  and  C3_7 
ROOT
HETATM    1  C3  UNL     1      19.774   5.201   6.351  1.00  0.00     0.257 C 
HETATM    2  C4  UNL     1      19.138   4.186   5.466  1.00  0.00     0.025 C 
HETATM    3  C5  UNL     1      20.222   3.098   5.568  1.00  0.00     0.037 C 
HETATM    4  C6  UNL     1      20.759   3.334   6.967  1.00  0.00     0.273 C 
HETATM    5  N1  UNL     1      19.902   4.396   7.549  1.00  0.00     0.096 N 
HETATM    6  C7  UNL     1      18.580   3.762   7.688  1.00  0.00     0.273 C 
HETATM    7  C8  UNL     1      18.008   3.636   6.305  1.00  0.00     0.037 C 
ENDROOT
BRANCH   1   8
HETATM    8  C2  UNL     1      19.253   6.533   6.441  1.00  0.00     0.175 C 
BRANCH   8   9
HETATM    9  C1  UNL     1      18.193   7.032   5.544  1.00  0.00     0.198 C 
BRANCH   9  10
HETATM   10  O1  UNL     1      17.385   7.887   6.352  1.00  0.00    -0.398 OA
ATOM     11  H1  UNL     1      17.684   8.768   6.163  1.00  0.00     0.209 HD
ENDBRANCH   9  10
ENDBRANCH   8   9
BRANCH   8  12
HETATM   12  O2  UNL     1      20.338   7.443   6.308  1.00  0.00    -0.391 OA
ATOM     13  H2  UNL     1      20.476   7.813   7.172  1.00  0.00     0.210 HD
ENDBRANCH   8  12
ENDBRANCH   1   8
TORSDOF 4
ENDMDL
