MODEL 1
REMARK VINA RESULT: -8.328043658      0.000      0.000
REMARK  7 active torsions:
REMARK  status: ('A' for Active; 'I' for Inactive)
REMARK    1  A    between atoms: N1_1  and  C1_4 
REMARK    2  A    between atoms: C2_7  and  N3_8 
REMARK    3  A    between atoms: N4_11  and  C5_12 
REMARK    4  A    between atoms: C5_12  and  C6_13 
REMARK    5  A    between atoms: N7_29  and  C17_30 
REMARK    6  A    between atoms: C17_30  and  C18_31 
REMARK    7  A    between atoms: C18_31  and  C19_32 
ROOT
HETATM    1  C1  UNL     1      11.605  50.549  87.962  1.00  0.00     0.123 A 
HETATM    2  N2  UNL     1      11.746  51.360  89.038  1.00  0.00    -0.176 N 
ATOM      3  H2  UNL     1      11.758  50.924  89.960  1.00  0.00     0.186 HD
HETATM    4  C2  UNL     1      11.870  52.692  88.979  1.00  0.00     0.690 A 
HETATM    5  N6  UNL     1      11.853  53.257  87.774  1.00  0.00    -0.194 N 
ATOM      6  H6  UNL     1      11.946  54.270  87.686  1.00  0.00     0.184 HD
HETATM    7  C13 UNL     1      11.715  52.499  86.675  1.00  0.00     0.038 A 
HETATM    8  C14 UNL     1      11.584  51.116  86.722  1.00  0.00     0.011 A 
HETATM    9  C15 UNL     1      11.408  50.178  85.584  1.00  0.00     0.074 C 
HETATM   10  C16 UNL     1      10.901  50.898  84.363  1.00  0.00     0.277 C 
HETATM   11  N7  UNL     1      11.871  51.623  83.611  1.00  0.00     0.089 N 
HETATM   12  C23 UNL     1      12.631  52.546  84.435  1.00  0.00     0.278 C 
HETATM   13  C24 UNL     1      11.737  53.295  85.406  1.00  0.00     0.088 C 
ENDROOT
BRANCH   4  14
HETATM   14  N3  UNL     1      12.011  53.484  90.159  1.00  0.00    -0.126 N 
HETATM   15  C3  UNL     1      10.995  53.642  91.161  1.00  0.00     0.199 C 
HETATM   16  C4  UNL     1      11.600  53.510  92.535  1.00  0.00     0.109 C 
HETATM   17  N4  UNL     1      12.760  54.264  92.786  1.00  0.00    -0.280 N 
HETATM   18  N5  UNL     1      13.501  54.709  91.735  1.00  0.00    -0.245 N 
HETATM   19  C12 UNL     1      13.239  54.194  90.413  1.00  0.00     0.356 C 
ATOM     20  H5  UNL     1      14.237  55.402  91.881  1.00  0.00     0.192 HD
HETATM   21  O1  UNL     1      14.054  54.348  89.473  1.00  0.00    -0.244 OA
BRANCH  17  22
HETATM   22  C5  UNL     1      12.818  54.972  94.004  1.00  0.00     0.093 C 
BRANCH  22  23
HETATM   23  C6  UNL     1      11.521  55.243  94.691  1.00  0.00     0.026 C 
HETATM   24  C7  UNL     1      11.587  54.492  96.030  1.00  0.00     0.010 C 
HETATM   25  C8  UNL     1      10.317  54.618  96.805  1.00  0.00     0.001 C 
HETATM   26  C9  UNL     1       9.925  56.057  96.982  1.00  0.00     0.000 C 
HETATM   27  C10 UNL     1      11.028  56.953  96.465  1.00  0.00     0.001 C 
HETATM   28  C11 UNL     1      11.285  56.683  94.998  1.00  0.00     0.010 C 
ENDBRANCH  22  23
ENDBRANCH  17  22
ENDBRANCH   4  14
BRANCH   1  29
HETATM   29  N1  UNL     1      11.503  49.278  88.105  1.00  0.00    -0.385 N 
ATOM     30  H12 UNL     1      12.281  48.662  87.867  1.00  0.00     0.157 HD
ATOM     31  H11 UNL     1      10.647  48.858  88.467  1.00  0.00     0.157 HD
ENDBRANCH   1  29
BRANCH  11  32
HETATM   32  C17 UNL     1      12.795  50.682  83.020  1.00  0.00     0.277 C 
BRANCH  32  33
HETATM   33  C18 UNL     1      14.063  51.276  82.502  1.00  0.00     0.070 C 
BRANCH  33  34
HETATM   34  C19 UNL     1      14.394  50.862  81.138  1.00  0.00    -0.032 A 
HETATM   35  C20 UNL     1      15.463  51.259  80.385  1.00  0.00     0.033 A 
HETATM   36  C21 UNL     1      15.341  50.597  79.171  1.00  0.00     0.142 A 
HETATM   37  O2  UNL     1      14.252  49.848  79.211  1.00  0.00    -0.334 OA
HETATM   38  C22 UNL     1      13.673  49.990  80.369  1.00  0.00     0.148 A 
ENDBRANCH  33  34
ENDBRANCH  32  33
ENDBRANCH  11  32
TORSDOF 7
ENDMDL
MODEL 2
REMARK VINA RESULT: -8.281039183      2.255     11.368
REMARK  7 active torsions:
REMARK  status: ('A' for Active; 'I' for Inactive)
REMARK    1  A    between atoms: N1_1  and  C1_4 
REMARK    2  A    between atoms: C2_7  and  N3_8 
REMARK    3  A    between atoms: N4_11  and  C5_12 
REMARK    4  A    between atoms: C5_12  and  C6_13 
REMARK    5  A    between atoms: N7_29  and  C17_30 
REMARK    6  A    between atoms: C17_30  and  C18_31 
REMARK    7  A    between atoms: C18_31  and  C19_32 
ROOT
HETATM    1  C1  UNL     1       9.910  53.845  89.041  1.00  0.00     0.123 A 
HETATM    2  N2  UNL     1      10.162  53.254  87.848  1.00  0.00    -0.176 N 
ATOM      3  H2  UNL     1       9.656  53.600  87.033  1.00  0.00     0.186 HD
HETATM    4  C2  UNL     1      11.028  52.249  87.661  1.00  0.00     0.690 A 
HETATM    5  N6  UNL     1      11.686  51.800  88.727  1.00  0.00    -0.194 N 
ATOM      6  H6  UNL     1      12.355  51.036  88.627  1.00  0.00     0.184 HD
HETATM    7  C13 UNL     1      11.472  52.349  89.933  1.00  0.00     0.038 A 
HETATM    8  C14 UNL     1      10.576  53.392  90.142  1.00  0.00     0.011 A 
HETATM    9  C15 UNL     1      10.243  54.065  91.423  1.00  0.00     0.074 C 
HETATM   10  C16 UNL     1      10.615  53.203  92.600  1.00  0.00     0.277 C 
HETATM   11  N7  UNL     1      11.993  53.196  92.965  1.00  0.00     0.089 N 
HETATM   12  C23 UNL     1      12.860  52.882  91.843  1.00  0.00     0.278 C 
HETATM   13  C24 UNL     1      12.309  51.737  91.015  1.00  0.00     0.088 C 
ENDROOT
BRANCH   4  14
HETATM   14  N3  UNL     1      11.239  51.673  86.372  1.00  0.00    -0.126 N 
HETATM   15  C3  UNL     1      11.250  52.412  85.141  1.00  0.00     0.199 C 
HETATM   16  C4  UNL     1      12.411  51.974  84.285  1.00  0.00     0.109 C 
HETATM   17  N4  UNL     1      12.575  50.588  84.111  1.00  0.00    -0.280 N 
HETATM   18  N5  UNL     1      12.003  49.735  85.004  1.00  0.00    -0.245 N 
HETATM   19  C12 UNL     1      11.466  50.257  86.239  1.00  0.00     0.356 C 
ATOM     20  H5  UNL     1      11.955  48.736  84.804  1.00  0.00     0.192 HD
HETATM   21  O1  UNL     1      11.190  49.507  87.204  1.00  0.00    -0.244 OA
BRANCH  17  22
HETATM   22  C5  UNL     1      12.828  50.128  82.803  1.00  0.00     0.093 C 
BRANCH  22  23
HETATM   23  C6  UNL     1      13.513  51.074  81.873  1.00  0.00     0.026 C 
HETATM   24  C7  UNL     1      14.997  51.057  82.272  1.00  0.00     0.010 C 
HETATM   25  C8  UNL     1      15.804  52.018  81.463  1.00  0.00     0.001 C 
HETATM   26  C9  UNL     1      15.611  51.792  79.992  1.00  0.00     0.000 C 
HETATM   27  C10 UNL     1      14.785  50.544  79.773  1.00  0.00     0.001 C 
HETATM   28  C11 UNL     1      13.432  50.681  80.438  1.00  0.00     0.010 C 
ENDBRANCH  22  23
ENDBRANCH  17  22
ENDBRANCH   4  14
BRANCH   1  29
HETATM   29  N1  UNL     1       9.072  54.812  89.132  1.00  0.00    -0.385 N 
ATOM     30  H12 UNL     1       9.354  55.712  89.522  1.00  0.00     0.157 HD
ATOM     31  H11 UNL     1       8.110  54.704  88.811  1.00  0.00     0.157 HD
ENDBRANCH   1  29
BRANCH  11  32
HETATM   32  C17 UNL     1      12.348  54.509  93.455  1.00  0.00     0.277 C 
BRANCH  32  33
HETATM   33  C18 UNL     1      12.097  54.734  94.909  1.00  0.00     0.070 C 
BRANCH  33  34
HETATM   34  C19 UNL     1      11.195  55.852  95.185  1.00  0.00    -0.032 A 
HETATM   35  C20 UNL     1      11.526  57.169  95.341  1.00  0.00     0.033 A 
HETATM   36  C21 UNL     1      10.333  57.836  95.585  1.00  0.00     0.142 A 
HETATM   37  O2  UNL     1       9.350  56.952  95.572  1.00  0.00    -0.334 OA
HETATM   38  C22 UNL     1       9.838  55.767  95.337  1.00  0.00     0.148 A 
ENDBRANCH  33  34
ENDBRANCH  32  33
ENDBRANCH  11  32
TORSDOF 7
ENDMDL
MODEL 3
REMARK VINA RESULT: -7.857548824      2.311     11.285
REMARK  7 active torsions:
REMARK  status: ('A' for Active; 'I' for Inactive)
REMARK    1  A    between atoms: N1_1  and  C1_4 
REMARK    2  A    between atoms: C2_7  and  N3_8 
REMARK    3  A    between atoms: N4_11  and  C5_12 
REMARK    4  A    between atoms: C5_12  and  C6_13 
REMARK    5  A    between atoms: N7_29  and  C17_30 
REMARK    6  A    between atoms: C17_30  and  C18_31 
REMARK    7  A    between atoms: C18_31  and  C19_32 
ROOT
HETATM    1  C1  UNL     1      10.878  51.054  91.102  1.00  0.00     0.123 A 
HETATM    2  N2  UNL     1      10.826  51.027  89.748  1.00  0.00    -0.176 N 
ATOM      3  H2  UNL     1      10.204  50.346  89.312  1.00  0.00     0.186 HD
HETATM    4  C2  UNL     1      11.533  51.829  88.941  1.00  0.00     0.690 A 
HETATM    5  N6  UNL     1      12.344  52.716  89.513  1.00  0.00    -0.194 N 
ATOM      6  H6  UNL     1      12.899  53.346  88.933  1.00  0.00     0.184 HD
HETATM    7  C13 UNL     1      12.433  52.783  90.851  1.00  0.00     0.038 A 
HETATM    8  C14 UNL     1      11.707  51.957  91.701  1.00  0.00     0.011 A 
HETATM    9  C15 UNL     1      11.735  51.926  93.185  1.00  0.00     0.074 C 
HETATM   10  C16 UNL     1      12.991  52.561  93.717  1.00  0.00     0.277 C 
HETATM   11  N7  UNL     1      13.013  53.986  93.749  1.00  0.00     0.089 N 
HETATM   12  C23 UNL     1      12.682  54.572  92.463  1.00  0.00     0.278 C 
HETATM   13  C24 UNL     1      13.376  53.848  91.324  1.00  0.00     0.088 C 
ENDROOT
BRANCH   4  14
HETATM   14  N3  UNL     1      11.429  51.740  87.520  1.00  0.00    -0.126 N 
HETATM   15  C3  UNL     1      11.196  52.857  86.648  1.00  0.00     0.199 C 
HETATM   16  C4  UNL     1      12.119  52.786  85.459  1.00  0.00     0.109 C 
HETATM   17  N4  UNL     1      12.184  51.553  84.787  1.00  0.00    -0.280 N 
HETATM   18  N5  UNL     1      11.791  50.423  85.436  1.00  0.00    -0.245 N 
HETATM   19  C12 UNL     1      11.564  50.466  86.861  1.00  0.00     0.356 C 
ATOM     20  H5  UNL     1      11.660  49.553  84.920  1.00  0.00     0.192 HD
HETATM   21  O1  UNL     1      11.479  49.420  87.545  1.00  0.00    -0.244 OA
BRANCH  17  22
HETATM   22  C5  UNL     1      12.121  51.581  83.379  1.00  0.00     0.093 C 
BRANCH  22  23
HETATM   23  C6  UNL     1      13.247  50.941  82.638  1.00  0.00     0.026 C 
HETATM   24  C7  UNL     1      12.807  50.885  81.166  1.00  0.00     0.010 C 
HETATM   25  C8  UNL     1      13.818  50.199  80.307  1.00  0.00     0.001 C 
HETATM   26  C9  UNL     1      15.179  50.812  80.467  1.00  0.00     0.000 C 
HETATM   27  C10 UNL     1      15.080  52.052  81.328  1.00  0.00     0.001 C 
HETATM   28  C11 UNL     1      14.525  51.706  82.693  1.00  0.00     0.010 C 
ENDBRANCH  22  23
ENDBRANCH  17  22
ENDBRANCH   4  14
BRANCH   1  29
HETATM   29  N1  UNL     1      10.158  50.257  91.804  1.00  0.00    -0.385 N 
ATOM     30  H12 UNL     1       9.194  50.053  91.539  1.00  0.00     0.157 HD
ATOM     31  H11 UNL     1      10.536  49.806  92.637  1.00  0.00     0.157 HD
ENDBRANCH   1  29
BRANCH  11  32
HETATM   32  C17 UNL     1      12.038  54.440  94.715  1.00  0.00     0.277 C 
BRANCH  32  33
HETATM   33  C18 UNL     1      11.864  55.920  94.793  1.00  0.00     0.070 C 
BRANCH  33  34
HETATM   34  C19 UNL     1      10.525  56.334  95.215  1.00  0.00    -0.032 A 
HETATM   35  C20 UNL     1      10.135  57.570  95.648  1.00  0.00     0.033 A 
HETATM   36  C21 UNL     1       8.779  57.465  95.929  1.00  0.00     0.142 A 
HETATM   37  O2  UNL     1       8.394  56.227  95.672  1.00  0.00    -0.334 OA
HETATM   38  C22 UNL     1       9.414  55.537  95.247  1.00  0.00     0.148 A 
ENDBRANCH  33  34
ENDBRANCH  32  33
ENDBRANCH  11  32
TORSDOF 7
ENDMDL
MODEL 4
REMARK VINA RESULT: -7.828388890      2.065     11.420
REMARK  7 active torsions:
REMARK  status: ('A' for Active; 'I' for Inactive)
REMARK    1  A    between atoms: N1_1  and  C1_4 
REMARK    2  A    between atoms: C2_7  and  N3_8 
REMARK    3  A    between atoms: N4_11  and  C5_12 
REMARK    4  A    between atoms: C5_12  and  C6_13 
REMARK    5  A    between atoms: N7_29  and  C17_30 
REMARK    6  A    between atoms: C17_30  and  C18_31 
REMARK    7  A    between atoms: C18_31  and  C19_32 
ROOT
HETATM    1  C1  UNL     1      10.119  53.844  88.936  1.00  0.00     0.123 A 
HETATM    2  N2  UNL     1      10.505  53.291  87.760  1.00  0.00    -0.176 N 
ATOM      3  H2  UNL     1      10.117  53.684  86.903  1.00  0.00     0.186 HD
HETATM    4  C2  UNL     1      11.360  52.267  87.642  1.00  0.00     0.690 A 
HETATM    5  N6  UNL     1      11.865  51.757  88.763  1.00  0.00    -0.194 N 
ATOM      6  H6  UNL     1      12.521  50.976  88.716  1.00  0.00     0.184 HD
HETATM    7  C13 UNL     1      11.514  52.266  89.955  1.00  0.00     0.038 A 
HETATM    8  C14 UNL     1      10.628  53.328  90.092  1.00  0.00     0.011 A 
HETATM    9  C15 UNL     1      10.153  53.962  91.348  1.00  0.00     0.074 C 
HETATM   10  C16 UNL     1      10.349  53.045  92.525  1.00  0.00     0.277 C 
HETATM   11  N7  UNL     1      11.669  52.980  93.060  1.00  0.00     0.089 N 
HETATM   12  C23 UNL     1      12.662  52.682  92.045  1.00  0.00     0.278 C 
HETATM   13  C24 UNL     1      12.190  51.587  91.106  1.00  0.00     0.088 C 
ENDROOT
BRANCH   4  14
HETATM   14  N3  UNL     1      11.719  51.734  86.367  1.00  0.00    -0.126 N 
HETATM   15  C3  UNL     1      11.506  50.372  85.964  1.00  0.00     0.199 C 
HETATM   16  C4  UNL     1      10.941  50.329  84.567  1.00  0.00     0.109 C 
HETATM   17  N4  UNL     1      11.601  51.106  83.598  1.00  0.00    -0.280 N 
HETATM   18  N5  UNL     1      12.390  52.138  84.002  1.00  0.00    -0.245 N 
HETATM   19  C12 UNL     1      12.337  52.577  85.376  1.00  0.00     0.356 C 
ATOM     20  H5  UNL     1      13.015  52.598  83.339  1.00  0.00     0.192 HD
HETATM   21  O1  UNL     1      12.817  53.678  85.734  1.00  0.00    -0.244 OA
BRANCH  17  22
HETATM   22  C5  UNL     1      11.864  50.498  82.354  1.00  0.00     0.093 C 
BRANCH  22  23
HETATM   23  C6  UNL     1      12.885  51.153  81.484  1.00  0.00     0.026 C 
HETATM   24  C7  UNL     1      14.250  50.800  82.094  1.00  0.00     0.010 C 
HETATM   25  C8  UNL     1      15.375  51.450  81.360  1.00  0.00     0.001 C 
HETATM   26  C9  UNL     1      15.318  51.147  79.890  1.00  0.00     0.000 C 
HETATM   27  C10 UNL     1      14.228  50.132  79.623  1.00  0.00     0.001 C 
HETATM   28  C11 UNL     1      12.886  50.665  80.075  1.00  0.00     0.010 C 
ENDBRANCH  22  23
ENDBRANCH  17  22
ENDBRANCH   4  14
BRANCH   1  29
HETATM   29  N1  UNL     1       9.303  54.833  88.961  1.00  0.00    -0.385 N 
ATOM     30  H12 UNL     1       9.073  55.343  88.108  1.00  0.00     0.157 HD
ATOM     31  H11 UNL     1       8.862  55.126  89.834  1.00  0.00     0.157 HD
ENDBRANCH   1  29
BRANCH  11  32
HETATM   32  C17 UNL     1      11.993  54.261  93.645  1.00  0.00     0.277 C 
BRANCH  32  33
HETATM   33  C18 UNL     1      11.509  54.463  95.043  1.00  0.00     0.070 C 
BRANCH  33  34
HETATM   34  C19 UNL     1      10.885  55.766  95.269  1.00  0.00    -0.032 A 
HETATM   35  C20 UNL     1      11.498  56.988  95.298  1.00  0.00     0.033 A 
HETATM   36  C21 UNL     1      10.492  57.913  95.544  1.00  0.00     0.142 A 
HETATM   37  O2  UNL     1       9.346  57.264  95.653  1.00  0.00    -0.334 OA
HETATM   38  C22 UNL     1       9.554  55.988  95.494  1.00  0.00     0.148 A 
ENDBRANCH  33  34
ENDBRANCH  32  33
ENDBRANCH  11  32
TORSDOF 7
ENDMDL
MODEL 5
REMARK VINA RESULT: -7.715181666      1.373      1.666
REMARK  7 active torsions:
REMARK  status: ('A' for Active; 'I' for Inactive)
REMARK    1  A    between atoms: N1_1  and  C1_4 
REMARK    2  A    between atoms: C2_7  and  N3_8 
REMARK    3  A    between atoms: N4_11  and  C5_12 
REMARK    4  A    between atoms: C5_12  and  C6_13 
REMARK    5  A    between atoms: N7_29  and  C17_30 
REMARK    6  A    between atoms: C17_30  and  C18_31 
REMARK    7  A    between atoms: C18_31  and  C19_32 
ROOT
HETATM    1  C1  UNL     1      12.010  50.162  88.795  1.00  0.00     0.123 A 
HETATM    2  N2  UNL     1      12.046  50.864  89.953  1.00  0.00    -0.176 N 
ATOM      3  H2  UNL     1      12.473  50.417  90.764  1.00  0.00     0.186 HD
HETATM    4  C2  UNL     1      11.562  52.103  90.111  1.00  0.00     0.690 A 
HETATM    5  N6  UNL     1      11.005  52.684  89.050  1.00  0.00    -0.194 N 
ATOM      6  H6  UNL     1      10.625  53.628  89.128  1.00  0.00     0.184 HD
HETATM    7  C13 UNL     1      10.943  52.031  87.878  1.00  0.00     0.038 A 
HETATM    8  C14 UNL     1      11.440  50.745  87.701  1.00  0.00     0.011 A 
HETATM    9  C15 UNL     1      11.413  49.920  86.467  1.00  0.00     0.074 C 
HETATM   10  C16 UNL     1      10.361  50.412  85.510  1.00  0.00     0.277 C 
HETATM   11  N7  UNL     1      10.702  51.557  84.732  1.00  0.00     0.089 N 
HETATM   12  C23 UNL     1      11.165  52.663  85.552  1.00  0.00     0.278 C 
HETATM   13  C24 UNL     1      10.304  52.839  86.790  1.00  0.00     0.088 C 
ENDROOT
BRANCH   4  14
HETATM   14  N3  UNL     1      11.632  52.781  91.365  1.00  0.00    -0.126 N 
HETATM   15  C3  UNL     1      10.500  53.067  92.201  1.00  0.00     0.199 C 
HETATM   16  C4  UNL     1      10.823  52.739  93.637  1.00  0.00     0.109 C 
HETATM   17  N4  UNL     1      12.035  53.243  94.140  1.00  0.00    -0.280 N 
HETATM   18  N5  UNL     1      13.016  53.603  93.267  1.00  0.00    -0.245 N 
HETATM   19  C12 UNL     1      12.902  53.228  91.878  1.00  0.00     0.356 C 
ATOM     20  H5  UNL     1      13.825  54.134  93.592  1.00  0.00     0.192 HD
HETATM   21  O1  UNL     1      13.883  53.282  91.099  1.00  0.00    -0.244 OA
BRANCH  17  22
HETATM   22  C5  UNL     1      12.003  53.852  95.411  1.00  0.00     0.093 C 
BRANCH  22  23
HETATM   23  C6  UNL     1      10.975  54.912  95.627  1.00  0.00     0.026 C 
HETATM   24  C7  UNL     1      11.124  55.351  97.093  1.00  0.00     0.010 C 
HETATM   25  C8  UNL     1      10.103  56.371  97.476  1.00  0.00     0.001 C 
HETATM   26  C9  UNL     1      10.114  57.538  96.533  1.00  0.00     0.000 C 
HETATM   27  C10 UNL     1      11.276  57.405  95.572  1.00  0.00     0.001 C 
HETATM   28  C11 UNL     1      11.161  56.122  94.778  1.00  0.00     0.010 C 
ENDBRANCH  22  23
ENDBRANCH  17  22
ENDBRANCH   4  14
BRANCH   1  29
HETATM   29  N1  UNL     1      12.508  48.981  88.725  1.00  0.00    -0.385 N 
ATOM     30  H12 UNL     1      12.599  48.505  87.828  1.00  0.00     0.157 HD
ATOM     31  H11 UNL     1      12.829  48.499  89.564  1.00  0.00     0.157 HD
ENDBRANCH   1  29
BRANCH  11  32
HETATM   32  C17 UNL     1      11.765  51.197  83.822  1.00  0.00     0.277 C 
BRANCH  32  33
HETATM   33  C18 UNL     1      12.994  52.039  83.914  1.00  0.00     0.070 C 
BRANCH  33  34
HETATM   34  C19 UNL     1      13.998  51.731  82.895  1.00  0.00    -0.032 A 
HETATM   35  C20 UNL     1      15.206  52.342  82.705  1.00  0.00     0.033 A 
HETATM   36  C21 UNL     1      15.792  51.701  81.623  1.00  0.00     0.142 A 
HETATM   37  O2  UNL     1      14.967  50.760  81.198  1.00  0.00    -0.334 OA
HETATM   38  C22 UNL     1      13.895  50.759  81.938  1.00  0.00     0.148 A 
ENDBRANCH  33  34
ENDBRANCH  32  33
ENDBRANCH  11  32
TORSDOF 7
ENDMDL
