MODEL 1
REMARK VINA RESULT: -9.635987193      0.000      0.000
REMARK  6 active torsions:
REMARK  status: ('A' for Active; 'I' for Inactive)
REMARK    1  A    between atoms: C3_4  and  N2_5 
REMARK    2  A    between atoms: C5_9  and  C6_10 
REMARK    3  A    between atoms: N4_21  and  N5_23 
REMARK    4  A    between atoms: C13_25  and  C14_26 
REMARK    5  A    between atoms: C18_31  and  N6_32 
REMARK    6  A    between atoms: C19_35  and  O5_36 
ROOT
HETATM    1  N1  UNL     1     -74.720 -19.220  86.553  1.00  0.00    -0.191 NA
HETATM    2  C1  UNL     1     -75.870 -19.443  86.483  1.00  0.00     0.106 C 
HETATM    3  C2  UNL     1     -77.275 -19.741  86.399  1.00  0.00     0.122 A 
HETATM    4  C3  UNL     1     -77.905 -20.325  87.475  1.00  0.00     0.129 A 
HETATM    5  C4  UNL     1     -79.253 -20.646  87.465  1.00  0.00     0.068 A 
HETATM    6  C5  UNL     1     -79.976 -20.357  86.312  1.00  0.00     0.048 A 
HETATM    7  N3  UNL     1     -79.359 -19.790  85.268  1.00  0.00    -0.339 N 
ATOM      8  H3  UNL     1     -79.904 -19.587  84.430  1.00  0.00     0.167 HD
HETATM    9  C12 UNL     1     -78.018 -19.468  85.275  1.00  0.00     0.144 A 
HETATM   10  N4  UNL     1     -77.497 -18.934  84.261  1.00  0.00    -0.284 N 
ATOM     11  H4  UNL     1     -78.170 -18.794  83.508  1.00  0.00     0.188 HD
ENDROOT
BRANCH   4  12
HETATM   12  N2  UNL     1     -77.211 -20.639  88.670  1.00  0.00    -0.114 N 
HETATM   13  O1  UNL     1     -77.770 -20.588  89.784  1.00  0.00    -0.532 OA
HETATM   14  O2  UNL     1     -75.898 -21.014  88.659  1.00  0.00    -0.532 OA
ENDBRANCH   4  12
BRANCH  10  15
HETATM   15  N5  UNL     1     -76.267 -18.503  83.934  1.00  0.00    -0.309 N 
HETATM   16  C13 UNL     1     -75.832 -18.293  82.731  1.00  0.00     0.121 C 
ATOM     17  H5  UNL     1     -75.617 -18.327  84.701  1.00  0.00     0.186 HD
BRANCH  16  18
HETATM   18  C14 UNL     1     -74.481 -17.823  82.459  1.00  0.00     0.018 A 
HETATM   19  C15 UNL     1     -73.662 -18.465  81.567  1.00  0.00     0.039 A 
HETATM   20  C16 UNL     1     -72.386 -18.013  81.329  1.00  0.00     0.037 A 
HETATM   21 CL3  UNL     1     -71.378 -18.857  80.187  1.00  0.00    -0.084 Cl
HETATM   22  C17 UNL     1     -71.881 -16.916  81.966  1.00  0.00     0.062 A 
HETATM   23  C18 UNL     1     -72.693 -16.231  82.891  1.00  0.00     0.138 A 
HETATM   24  C19 UNL     1     -73.966 -16.695  83.116  1.00  0.00     0.110 A 
BRANCH  23  25
HETATM   25  N6  UNL     1     -72.117 -15.092  83.518  1.00  0.00    -0.113 N 
HETATM   26  O3  UNL     1     -71.877 -15.106  84.768  1.00  0.00    -0.532 OA
HETATM   27  O4  UNL     1     -71.820 -13.984  82.783  1.00  0.00    -0.532 OA
ENDBRANCH  23  25
BRANCH  24  28
HETATM   28  O5  UNL     1     -74.827 -16.091  83.994  1.00  0.00    -0.357 OA
ATOM     29  H5  UNL     1     -74.427 -15.770  84.794  1.00  0.00     0.217 HD
ENDBRANCH  24  28
ENDBRANCH  16  18
ENDBRANCH  10  15
BRANCH   6  30
HETATM   30  C6  UNL     1     -81.407 -20.630  86.378  1.00  0.00     0.014 A 
HETATM   31  C7  UNL     1     -82.229 -19.743  87.088  1.00  0.00     0.039 A 
HETATM   32  C8  UNL     1     -83.592 -19.859  87.165  1.00  0.00     0.035 A 
HETATM   33 CL1  UNL     1     -84.567 -18.718  88.067  1.00  0.00    -0.084 Cl
HETATM   34  C9  UNL     1     -84.238 -20.890  86.527  1.00  0.00     0.025 A 
HETATM   35  C10 UNL     1     -83.465 -21.772  85.827  1.00  0.00     0.026 A 
HETATM   36  C11 UNL     1     -82.064 -21.648  85.748  1.00  0.00     0.046 A 
HETATM   37 CL2  UNL     1     -81.199 -22.799  84.769  1.00  0.00    -0.083 Cl
ENDBRANCH   6  30
TORSDOF 6
ENDMDL
MODEL 2
REMARK VINA RESULT: -9.579905372      3.186      9.859
REMARK  6 active torsions:
REMARK  status: ('A' for Active; 'I' for Inactive)
REMARK    1  A    between atoms: C3_4  and  N2_5 
REMARK    2  A    between atoms: C5_9  and  C6_10 
REMARK    3  A    between atoms: N4_21  and  N5_23 
REMARK    4  A    between atoms: C13_25  and  C14_26 
REMARK    5  A    between atoms: C18_31  and  N6_32 
REMARK    6  A    between atoms: C19_35  and  O5_36 
ROOT
HETATM    1  N1  UNL     1     -75.243 -17.625  87.554  1.00  0.00    -0.191 NA
HETATM    2  C1  UNL     1     -74.630 -17.269  86.619  1.00  0.00     0.106 C 
HETATM    3  C2  UNL     1     -73.879 -16.809  85.482  1.00  0.00     0.122 A 
HETATM    4  C3  UNL     1     -72.639 -16.241  85.677  1.00  0.00     0.129 A 
HETATM    5  C4  UNL     1     -71.861 -15.771  84.631  1.00  0.00     0.068 A 
HETATM    6  C5  UNL     1     -72.375 -15.887  83.343  1.00  0.00     0.048 A 
HETATM    7  N3  UNL     1     -73.581 -16.437  83.159  1.00  0.00    -0.339 N 
ATOM      8  H3  UNL     1     -73.942 -16.512  82.208  1.00  0.00     0.167 HD
HETATM    9  C12 UNL     1     -74.357 -16.909  84.196  1.00  0.00     0.144 A 
HETATM   10  N4  UNL     1     -75.482 -17.419  83.956  1.00  0.00    -0.284 N 
ATOM     11  H4  UNL     1     -75.701 -17.423  82.960  1.00  0.00     0.188 HD
ENDROOT
BRANCH   4  12
HETATM   12  N2  UNL     1     -72.076 -16.101  86.970  1.00  0.00    -0.114 N 
HETATM   13  O1  UNL     1     -71.342 -16.982  87.463  1.00  0.00    -0.532 OA
HETATM   14  O2  UNL     1     -72.306 -14.995  87.737  1.00  0.00    -0.532 OA
ENDBRANCH   4  12
BRANCH  10  15
HETATM   15  N5  UNL     1     -76.464 -17.959  84.697  1.00  0.00    -0.309 N 
HETATM   16  C13 UNL     1     -76.995 -19.128  84.516  1.00  0.00     0.121 C 
ATOM     17  H5  UNL     1     -76.824 -17.400  85.471  1.00  0.00     0.186 HD
BRANCH  16  18
HETATM   18  C14 UNL     1     -78.058 -19.643  85.368  1.00  0.00     0.018 A 
HETATM   19  C15 UNL     1     -77.828 -19.991  86.673  1.00  0.00     0.039 A 
HETATM   20  C16 UNL     1     -78.840 -20.484  87.462  1.00  0.00     0.037 A 
HETATM   21 CL3  UNL     1     -78.507 -20.915  89.115  1.00  0.00    -0.084 Cl
HETATM   22  C17 UNL     1     -80.109 -20.650  86.982  1.00  0.00     0.062 A 
HETATM   23  C18 UNL     1     -80.383 -20.304  85.645  1.00  0.00     0.138 A 
HETATM   24  C19 UNL     1     -79.360 -19.811  84.872  1.00  0.00     0.110 A 
BRANCH  23  25
HETATM   25  N6  UNL     1     -81.722 -20.491  85.204  1.00  0.00    -0.113 N 
HETATM   26  O3  UNL     1     -81.953 -21.108  84.114  1.00  0.00    -0.532 OA
HETATM   27  O4  UNL     1     -82.759 -20.011  85.944  1.00  0.00    -0.532 OA
ENDBRANCH  23  25
BRANCH  24  28
HETATM   28  O5  UNL     1     -79.534 -19.446  83.563  1.00  0.00    -0.357 OA
ATOM     29  H5  UNL     1     -80.286 -19.835  83.133  1.00  0.00     0.217 HD
ENDBRANCH  24  28
ENDBRANCH  16  18
ENDBRANCH  10  15
BRANCH   6  30
HETATM   30  C6  UNL     1     -71.487 -15.460  82.269  1.00  0.00     0.014 A 
HETATM   31  C7  UNL     1     -71.268 -14.087  82.081  1.00  0.00     0.039 A 
HETATM   32  C8  UNL     1     -70.406 -13.571  81.149  1.00  0.00     0.035 A 
HETATM   33 CL1  UNL     1     -70.174 -11.846  80.963  1.00  0.00    -0.084 Cl
HETATM   34  C9  UNL     1     -69.693 -14.406  80.325  1.00  0.00     0.025 A 
HETATM   35  C10 UNL     1     -69.884 -15.750  80.482  1.00  0.00     0.026 A 
HETATM   36  C11 UNL     1     -70.770 -16.277  81.443  1.00  0.00     0.046 A 
HETATM   37 CL2  UNL     1     -70.874 -18.009  81.588  1.00  0.00    -0.083 Cl
ENDBRANCH   6  30
TORSDOF 6
ENDMDL
MODEL 3
REMARK VINA RESULT: -9.548976871      2.708      3.660
REMARK  6 active torsions:
REMARK  status: ('A' for Active; 'I' for Inactive)
REMARK    1  A    between atoms: C3_4  and  N2_5 
REMARK    2  A    between atoms: C5_9  and  C6_10 
REMARK    3  A    between atoms: N4_21  and  N5_23 
REMARK    4  A    between atoms: C13_25  and  C14_26 
REMARK    5  A    between atoms: C18_31  and  N6_32 
REMARK    6  A    between atoms: C19_35  and  O5_36 
ROOT
HETATM    1  N1  UNL     1     -76.186 -17.849  82.138  1.00  0.00    -0.191 NA
HETATM    2  C1  UNL     1     -77.089 -18.255  82.768  1.00  0.00     0.106 C 
HETATM    3  C2  UNL     1     -78.208 -18.728  83.539  1.00  0.00     0.122 A 
HETATM    4  C3  UNL     1     -79.458 -18.761  82.962  1.00  0.00     0.129 A 
HETATM    5  C4  UNL     1     -80.582 -19.199  83.644  1.00  0.00     0.068 A 
HETATM    6  C5  UNL     1     -80.415 -19.616  84.961  1.00  0.00     0.048 A 
HETATM    7  N3  UNL     1     -79.198 -19.581  85.517  1.00  0.00    -0.339 N 
ATOM      8  H3  UNL     1     -79.095 -19.889  86.484  1.00  0.00     0.167 HD
HETATM    9  C12 UNL     1     -78.077 -19.148  84.842  1.00  0.00     0.144 A 
HETATM   10  N4  UNL     1     -76.960 -19.142  85.421  1.00  0.00    -0.284 N 
ATOM     11  H4  UNL     1     -77.019 -19.479  86.381  1.00  0.00     0.188 HD
ENDROOT
BRANCH   4  12
HETATM   12  N2  UNL     1     -79.677 -18.345  81.625  1.00  0.00    -0.114 N 
HETATM   13  O1  UNL     1     -80.828 -18.195  81.167  1.00  0.00    -0.532 OA
HETATM   14  O2  UNL     1     -78.640 -18.087  80.775  1.00  0.00    -0.532 OA
ENDBRANCH   4  12
BRANCH  10  15
HETATM   15  N5  UNL     1     -75.707 -18.798  85.077  1.00  0.00    -0.309 N 
HETATM   16  C13 UNL     1     -74.943 -17.972  85.722  1.00  0.00     0.121 C 
ATOM     17  H5  UNL     1     -75.323 -19.223  84.233  1.00  0.00     0.186 HD
BRANCH  16  18
HETATM   18  C14 UNL     1     -73.592 -17.653  85.283  1.00  0.00     0.018 A 
HETATM   19  C15 UNL     1     -72.499 -18.305  85.791  1.00  0.00     0.039 A 
HETATM   20  C16 UNL     1     -71.229 -17.986  85.372  1.00  0.00     0.037 A 
HETATM   21 CL3  UNL     1     -69.866 -18.838  86.041  1.00  0.00    -0.084 Cl
HETATM   22  C17 UNL     1     -71.002 -17.011  84.442  1.00  0.00     0.062 A 
HETATM   23  C18 UNL     1     -72.102 -16.318  83.900  1.00  0.00     0.138 A 
HETATM   24  C19 UNL     1     -73.364 -16.651  84.327  1.00  0.00     0.110 A 
BRANCH  23  25
HETATM   25  N6  UNL     1     -71.806 -15.320  82.930  1.00  0.00    -0.113 N 
HETATM   26  O3  UNL     1     -72.055 -14.096  83.180  1.00  0.00    -0.532 OA
HETATM   27  O4  UNL     1     -71.257 -15.670  81.734  1.00  0.00    -0.532 OA
ENDBRANCH  23  25
BRANCH  24  28
HETATM   28  O5  UNL     1     -74.491 -16.034  83.853  1.00  0.00    -0.357 OA
ATOM     29  H5  UNL     1     -74.341 -15.393  83.169  1.00  0.00     0.217 HD
ENDBRANCH  24  28
ENDBRANCH  16  18
ENDBRANCH  10  15
BRANCH   6  30
HETATM   30  C6  UNL     1     -81.606 -20.150  85.610  1.00  0.00     0.014 A 
HETATM   31  C7  UNL     1     -82.432 -19.274  86.329  1.00  0.00     0.039 A 
HETATM   32  C8  UNL     1     -83.609 -19.647  86.924  1.00  0.00     0.035 A 
HETATM   33 CL1  UNL     1     -84.598 -18.505  87.808  1.00  0.00    -0.084 Cl
HETATM   34  C9  UNL     1     -84.048 -20.945  86.841  1.00  0.00     0.025 A 
HETATM   35  C10 UNL     1     -83.265 -21.825  86.147  1.00  0.00     0.026 A 
HETATM   36  C11 UNL     1     -82.057 -21.437  85.535  1.00  0.00     0.046 A 
HETATM   37 CL2  UNL     1     -81.185 -22.637  84.624  1.00  0.00    -0.083 Cl
ENDBRANCH   6  30
TORSDOF 6
ENDMDL
MODEL 4
REMARK VINA RESULT: -9.316848005      1.761      1.970
REMARK  6 active torsions:
REMARK  status: ('A' for Active; 'I' for Inactive)
REMARK    1  A    between atoms: C3_4  and  N2_5 
REMARK    2  A    between atoms: C5_9  and  C6_10 
REMARK    3  A    between atoms: N4_21  and  N5_23 
REMARK    4  A    between atoms: C13_25  and  C14_26 
REMARK    5  A    between atoms: C18_31  and  N6_32 
REMARK    6  A    between atoms: C19_35  and  O5_36 
ROOT
HETATM    1  N1  UNL     1     -74.692 -19.052  86.449  1.00  0.00    -0.191 NA
HETATM    2  C1  UNL     1     -75.838 -19.296  86.388  1.00  0.00     0.106 C 
HETATM    3  C2  UNL     1     -77.238 -19.621  86.314  1.00  0.00     0.122 A 
HETATM    4  C3  UNL     1     -77.842 -20.245  87.383  1.00  0.00     0.129 A 
HETATM    5  C4  UNL     1     -79.183 -20.592  87.382  1.00  0.00     0.068 A 
HETATM    6  C5  UNL     1     -79.927 -20.289  86.245  1.00  0.00     0.048 A 
HETATM    7  N3  UNL     1     -79.335 -19.683  85.209  1.00  0.00    -0.339 N 
ATOM      8  H3  UNL     1     -79.895 -19.470  84.384  1.00  0.00     0.167 HD
HETATM    9  C12 UNL     1     -78.001 -19.334  85.207  1.00  0.00     0.144 A 
HETATM   10  N4  UNL     1     -77.504 -18.764  84.201  1.00  0.00    -0.284 N 
ATOM     11  H4  UNL     1     -78.189 -18.618  83.460  1.00  0.00     0.188 HD
ENDROOT
BRANCH   4  12
HETATM   12  N2  UNL     1     -77.125 -20.575  88.560  1.00  0.00    -0.114 N 
HETATM   13  O1  UNL     1     -77.649 -20.490  89.690  1.00  0.00    -0.532 OA
HETATM   14  O2  UNL     1     -75.830 -21.003  88.515  1.00  0.00    -0.532 OA
ENDBRANCH   4  12
BRANCH  10  15
HETATM   15  N5  UNL     1     -76.287 -18.300  83.870  1.00  0.00    -0.309 N 
HETATM   16  C13 UNL     1     -75.706 -18.450  82.720  1.00  0.00     0.121 C 
ATOM     17  H5  UNL     1     -75.774 -17.785  84.586  1.00  0.00     0.186 HD
BRANCH  16  18
HETATM   18  C14 UNL     1     -74.382 -17.914  82.438  1.00  0.00     0.018 A 
HETATM   19  C15 UNL     1     -73.412 -17.849  83.404  1.00  0.00     0.039 A 
HETATM   20  C16 UNL     1     -72.170 -17.332  83.125  1.00  0.00     0.037 A 
HETATM   21 CL3  UNL     1     -70.965 -17.268  84.380  1.00  0.00    -0.084 Cl
HETATM   22  C17 UNL     1     -71.850 -16.862  81.883  1.00  0.00     0.062 A 
HETATM   23  C18 UNL     1     -72.822 -16.911  80.864  1.00  0.00     0.138 A 
HETATM   24  C19 UNL     1     -74.058 -17.432  81.161  1.00  0.00     0.110 A 
BRANCH  23  25
HETATM   25  N6  UNL     1     -72.430 -16.415  79.590  1.00  0.00    -0.113 N 
HETATM   26  O3  UNL     1     -71.953 -15.239  79.484  1.00  0.00    -0.532 OA
HETATM   27  O4  UNL     1     -72.564 -17.194  78.481  1.00  0.00    -0.532 OA
ENDBRANCH  23  25
BRANCH  24  28
HETATM   28  O5  UNL     1     -75.062 -17.523  80.234  1.00  0.00    -0.357 OA
ATOM     29  H5  UNL     1     -75.942 -17.492  80.590  1.00  0.00     0.217 HD
ENDBRANCH  24  28
ENDBRANCH  16  18
ENDBRANCH  10  15
BRANCH   6  30
HETATM   30  C6  UNL     1     -81.351 -20.592  86.323  1.00  0.00     0.014 A 
HETATM   31  C7  UNL     1     -82.190 -19.713  87.024  1.00  0.00     0.039 A 
HETATM   32  C8  UNL     1     -83.549 -19.858  87.109  1.00  0.00     0.035 A 
HETATM   33 CL1  UNL     1     -84.545 -18.725  87.998  1.00  0.00    -0.084 Cl
HETATM   34  C9  UNL     1     -84.175 -20.913  86.490  1.00  0.00     0.025 A 
HETATM   35  C10 UNL     1     -83.386 -21.788  85.800  1.00  0.00     0.026 A 
HETATM   36  C11 UNL     1     -81.988 -21.634  85.712  1.00  0.00     0.046 A 
HETATM   37 CL2  UNL     1     -81.102 -22.781  84.747  1.00  0.00    -0.083 Cl
ENDBRANCH   6  30
TORSDOF 6
ENDMDL
MODEL 5
REMARK VINA RESULT: -9.274063532      2.444      9.707
REMARK  6 active torsions:
REMARK  status: ('A' for Active; 'I' for Inactive)
REMARK    1  A    between atoms: C3_4  and  N2_5 
REMARK    2  A    between atoms: C5_9  and  C6_10 
REMARK    3  A    between atoms: N4_21  and  N5_23 
REMARK    4  A    between atoms: C13_25  and  C14_26 
REMARK    5  A    between atoms: C18_31  and  N6_32 
REMARK    6  A    between atoms: C19_35  and  O5_36 
ROOT
HETATM    1  N1  UNL     1     -75.281 -17.553  87.710  1.00  0.00    -0.191 NA
HETATM    2  C1  UNL     1     -74.679 -17.225  86.757  1.00  0.00     0.106 C 
HETATM    3  C2  UNL     1     -73.944 -16.798  85.596  1.00  0.00     0.122 A 
HETATM    4  C3  UNL     1     -72.728 -16.174  85.760  1.00  0.00     0.129 A 
HETATM    5  C4  UNL     1     -71.966 -15.731  84.691  1.00  0.00     0.068 A 
HETATM    6  C5  UNL     1     -72.473 -15.936  83.411  1.00  0.00     0.048 A 
HETATM    7  N3  UNL     1     -73.656 -16.542  83.256  1.00  0.00    -0.339 N 
ATOM      8  H3  UNL     1     -74.013 -16.682  82.311  1.00  0.00     0.167 HD
HETATM    9  C12 UNL     1     -74.416 -16.985  84.318  1.00  0.00     0.144 A 
HETATM   10  N4  UNL     1     -75.520 -17.550  84.106  1.00  0.00    -0.284 N 
ATOM     11  H4  UNL     1     -75.737 -17.617  83.111  1.00  0.00     0.188 HD
ENDROOT
BRANCH   4  12
HETATM   12  N2  UNL     1     -72.172 -15.943  87.044  1.00  0.00    -0.114 N 
HETATM   13  O1  UNL     1     -71.402 -16.764  87.581  1.00  0.00    -0.532 OA
HETATM   14  O2  UNL     1     -72.452 -14.810  87.753  1.00  0.00    -0.532 OA
ENDBRANCH   4  12
BRANCH  10  15
HETATM   15  N5  UNL     1     -76.483 -18.087  84.875  1.00  0.00    -0.309 N 
HETATM   16  C13 UNL     1     -77.034 -19.247  84.700  1.00  0.00     0.121 C 
ATOM     17  H5  UNL     1     -76.808 -17.532  85.667  1.00  0.00     0.186 HD
BRANCH  16  18
HETATM   18  C14 UNL     1     -78.073 -19.759  85.583  1.00  0.00     0.018 A 
HETATM   19  C15 UNL     1     -79.371 -19.893  85.163  1.00  0.00     0.039 A 
HETATM   20  C16 UNL     1     -80.341 -20.370  86.012  1.00  0.00     0.037 A 
HETATM   21 CL3  UNL     1     -81.979 -20.526  85.440  1.00  0.00    -0.084 Cl
HETATM   22  C17 UNL     1     -80.058 -20.726  87.300  1.00  0.00     0.062 A 
HETATM   23  C18 UNL     1     -78.736 -20.601  87.767  1.00  0.00     0.138 A 
HETATM   24  C19 UNL     1     -77.778 -20.124  86.905  1.00  0.00     0.110 A 
BRANCH  23  25
HETATM   25  N6  UNL     1     -78.499 -20.993  89.113  1.00  0.00    -0.113 N 
HETATM   26  O3  UNL     1     -77.368 -20.766  89.653  1.00  0.00    -0.532 OA
HETATM   27  O4  UNL     1     -79.479 -21.613  89.828  1.00  0.00    -0.532 OA
ENDBRANCH  23  25
BRANCH  24  28
HETATM   28  O5  UNL     1     -76.466 -19.972  87.270  1.00  0.00    -0.357 OA
ATOM     29  H5  UNL     1     -76.170 -20.555  87.959  1.00  0.00     0.217 HD
ENDBRANCH  24  28
ENDBRANCH  16  18
ENDBRANCH  10  15
BRANCH   6  30
HETATM   30  C6  UNL     1     -71.600 -15.534  82.314  1.00  0.00     0.014 A 
HETATM   31  C7  UNL     1     -71.328 -14.170  82.135  1.00  0.00     0.039 A 
HETATM   32  C8  UNL     1     -70.473 -13.679  81.184  1.00  0.00     0.035 A 
HETATM   33 CL1  UNL     1     -70.172 -11.964  81.009  1.00  0.00    -0.084 Cl
HETATM   34  C9  UNL     1     -69.820 -14.534  80.329  1.00  0.00     0.025 A 
HETATM   35  C10 UNL     1     -70.064 -15.870  80.478  1.00  0.00     0.026 A 
HETATM   36  C11 UNL     1     -70.942 -16.371  81.459  1.00  0.00     0.046 A 
HETATM   37 CL2  UNL     1     -71.116 -18.099  81.588  1.00  0.00    -0.083 Cl
ENDBRANCH   6  30
TORSDOF 6
ENDMDL
