MODEL 1
REMARK VINA RESULT: -5.317758155      0.000      0.000
REMARK  4 active torsions:
REMARK  status: ('A' for Active; 'I' for Inactive)
REMARK    1  A    between atoms: C4_4  and  N1_5 
REMARK    2  A    between atoms: N1_5  and  C5_7 
REMARK    3  A    between atoms: C5_7  and  C6_8 
REMARK    4  A    between atoms: C6_8  and  N2_9 
ROOT
HETATM    1  C6  UNL     1       8.817  17.851  17.749  1.00  0.00     0.077 C 
ENDROOT
BRANCH   1   2
HETATM    2  C5  UNL     1      10.295  17.713  17.422  1.00  0.00     0.158 C 
BRANCH   2   3
HETATM    3  N1  UNL     1      11.160  17.655  18.548  1.00  0.00    -0.413 N 
ATOM      4  H1  UNL     1      11.691  16.807  18.746  1.00  0.00     0.153 HD
BRANCH   3   5
HETATM    5  C4  UNL     1      11.278  18.779  19.391  1.00  0.00     0.076 C 
HETATM    6  C3  UNL     1      12.427  19.666  18.828  1.00  0.00     0.024 C 
HETATM    7  C2  UNL     1      13.600  18.691  19.011  1.00  0.00     0.002 C 
HETATM    8  C1  UNL     1      13.299  17.966  20.332  1.00  0.00     0.002 C 
HETATM    9  C11 UNL     1      11.908  18.434  20.723  1.00  0.00     0.024 C 
ENDBRANCH   3   5
ENDBRANCH   2   3
ENDBRANCH   1   2
BRANCH   1  10
HETATM   10  N2  UNL     1       8.009  17.313  16.728  1.00  0.00    -0.389 N 
HETATM   11  C7  UNL     1       8.505  16.303  15.888  1.00  0.00     0.149 C 
HETATM   12  C8  UNL     1       7.252  15.674  15.227  1.00  0.00     0.252 C 
HETATM   13  N3  UNL     1       6.845  16.601  14.198  1.00  0.00    -0.072 N 
HETATM   14  C9  UNL     1       7.175  17.970  14.513  1.00  0.00     0.252 C 
ATOM     15  H32 UNL     1       7.230  16.333  13.292  1.00  0.00     0.277 HD
ATOM     16  H31 UNL     1       5.851  16.504  13.991  1.00  0.00     0.277 HD
HETATM   17  C10 UNL     1       7.195  18.227  16.000  1.00  0.00     0.149 C 
ENDBRANCH   1  10
TORSDOF 4
ENDMDL
MODEL 2
REMARK VINA RESULT: -5.287660604      4.100      5.871
REMARK  4 active torsions:
REMARK  status: ('A' for Active; 'I' for Inactive)
REMARK    1  A    between atoms: C4_4  and  N1_5 
REMARK    2  A    between atoms: N1_5  and  C5_7 
REMARK    3  A    between atoms: C5_7  and  C6_8 
REMARK    4  A    between atoms: C6_8  and  N2_9 
ROOT
HETATM    1  C6  UNL     1       8.874  15.788  15.907  1.00  0.00     0.077 C 
ENDROOT
BRANCH   1   2
HETATM    2  C5  UNL     1       8.201  14.684  16.704  1.00  0.00     0.158 C 
BRANCH   2   3
HETATM    3  N1  UNL     1       7.806  13.547  15.947  1.00  0.00    -0.413 N 
ATOM      4  H1  UNL     1       7.192  13.654  15.141  1.00  0.00     0.153 HD
BRANCH   3   5
HETATM    5  C4  UNL     1       8.271  12.269  16.321  1.00  0.00     0.076 C 
HETATM    6  C3  UNL     1       9.813  12.251  16.103  1.00  0.00     0.024 C 
HETATM    7  C2  UNL     1       9.845  12.445  14.578  1.00  0.00     0.002 C 
HETATM    8  C1  UNL     1       8.638  11.649  14.060  1.00  0.00     0.002 C 
HETATM    9  C11 UNL     1       7.899  11.206  15.311  1.00  0.00     0.024 C 
ENDBRANCH   3   5
ENDBRANCH   2   3
ENDBRANCH   1   2
BRANCH   1  10
HETATM   10  N2  UNL     1       7.938  16.536  15.165  1.00  0.00    -0.389 N 
HETATM   11  C7  UNL     1       8.349  17.665  14.438  1.00  0.00     0.149 C 
HETATM   12  C8  UNL     1       7.199  17.942  13.436  1.00  0.00     0.252 C 
HETATM   13  N3  UNL     1       6.153  18.574  14.205  1.00  0.00    -0.072 N 
HETATM   14  C9  UNL     1       6.139  18.154  15.585  1.00  0.00     0.252 C 
ATOM     15  H32 UNL     1       6.212  19.590  14.134  1.00  0.00     0.277 HD
ATOM     16  H31 UNL     1       5.242  18.430  13.770  1.00  0.00     0.277 HD
HETATM   17  C10 UNL     1       6.664  16.750  15.762  1.00  0.00     0.149 C 
ENDBRANCH   1  10
TORSDOF 4
ENDMDL
MODEL 3
REMARK VINA RESULT: -5.273357424      2.658      5.866
REMARK  4 active torsions:
REMARK  status: ('A' for Active; 'I' for Inactive)
REMARK    1  A    between atoms: C4_4  and  N1_5 
REMARK    2  A    between atoms: N1_5  and  C5_7 
REMARK    3  A    between atoms: C5_7  and  C6_8 
REMARK    4  A    between atoms: C6_8  and  N2_9 
ROOT
HETATM    1  C6  UNL     1       7.549  16.986  14.531  1.00  0.00     0.077 C 
ENDROOT
BRANCH   1   2
HETATM    2  C5  UNL     1       7.232  15.631  15.142  1.00  0.00     0.158 C 
BRANCH   2   3
HETATM    3  N1  UNL     1       8.031  14.554  14.671  1.00  0.00    -0.413 N 
ATOM      4  H1  UNL     1       7.889  14.179  13.733  1.00  0.00     0.153 HD
BRANCH   3   5
HETATM    5  C4  UNL     1       9.023  14.007  15.511  1.00  0.00     0.076 C 
HETATM    6  C3  UNL     1       9.794  12.936  14.687  1.00  0.00     0.024 C 
HETATM    7  C2  UNL     1       8.646  11.944  14.440  1.00  0.00     0.002 C 
HETATM    8  C1  UNL     1       7.826  11.971  15.739  1.00  0.00     0.002 C 
HETATM    9  C11 UNL     1       8.440  13.089  16.563  1.00  0.00     0.024 C 
ENDBRANCH   3   5
ENDBRANCH   2   3
ENDBRANCH   1   2
BRANCH   1  10
HETATM   10  N2  UNL     1       8.447  17.718  15.333  1.00  0.00    -0.389 N 
HETATM   11  C7  UNL     1       9.830  17.503  15.226  1.00  0.00     0.149 C 
HETATM   12  C8  UNL     1      10.485  18.742  15.889  1.00  0.00     0.252 C 
HETATM   13  N3  UNL     1      10.365  18.533  17.313  1.00  0.00    -0.072 N 
HETATM   14  C9  UNL     1       9.201  17.760  17.670  1.00  0.00     0.252 C 
ATOM     15  H32 UNL     1      11.213  18.112  17.692  1.00  0.00     0.277 HD
ATOM     16  H31 UNL     1      10.382  19.421  17.814  1.00  0.00     0.277 HD
HETATM   17  C10 UNL     1       8.069  17.939  16.688  1.00  0.00     0.149 C 
ENDBRANCH   1  10
TORSDOF 4
ENDMDL
MODEL 4
REMARK VINA RESULT: -5.229781415      3.465      6.230
REMARK  4 active torsions:
REMARK  status: ('A' for Active; 'I' for Inactive)
REMARK    1  A    between atoms: C4_4  and  N1_5 
REMARK    2  A    between atoms: N1_5  and  C5_7 
REMARK    3  A    between atoms: C5_7  and  C6_8 
REMARK    4  A    between atoms: C6_8  and  N2_9 
ROOT
HETATM    1  C6  UNL     1       7.272  15.329  14.912  1.00  0.00     0.077 C 
ENDROOT
BRANCH   1   2
HETATM    2  C5  UNL     1       7.727  14.305  15.938  1.00  0.00     0.158 C 
BRANCH   2   3
HETATM    3  N1  UNL     1       7.372  12.959  15.648  1.00  0.00    -0.413 N 
ATOM      4  H1  UNL     1       6.534  12.755  15.103  1.00  0.00     0.153 HD
BRANCH   3   5
HETATM    5  C4  UNL     1       8.186  11.909  16.119  1.00  0.00     0.076 C 
HETATM    6  C3  UNL     1       9.667  12.323  15.880  1.00  0.00     0.024 C 
HETATM    7  C2  UNL     1       9.657  12.391  14.345  1.00  0.00     0.002 C 
HETATM    8  C1  UNL     1       8.740  11.236  13.913  1.00  0.00     0.002 C 
HETATM    9  C11 UNL     1       8.151  10.703  15.207  1.00  0.00     0.024 C 
ENDBRANCH   3   5
ENDBRANCH   2   3
ENDBRANCH   1   2
BRANCH   1  10
HETATM   10  N2  UNL     1       8.007  16.527  15.015  1.00  0.00    -0.389 N 
HETATM   11  C7  UNL     1       9.187  16.571  15.775  1.00  0.00     0.149 C 
HETATM   12  C8  UNL     1       9.923  17.852  15.304  1.00  0.00     0.252 C 
HETATM   13  N3  UNL     1       9.239  18.953  15.941  1.00  0.00    -0.072 N 
HETATM   14  C9  UNL     1       7.841  18.685  16.176  1.00  0.00     0.252 C 
ATOM     15  H32 UNL     1       9.709  19.223  16.805  1.00  0.00     0.277 HD
ATOM     16  H31 UNL     1       9.361  19.815  15.410  1.00  0.00     0.277 HD
HETATM   17  C10 UNL     1       7.262  17.731  15.160  1.00  0.00     0.149 C 
ENDBRANCH   1  10
TORSDOF 4
ENDMDL
MODEL 5
REMARK VINA RESULT: -5.167492569      0.294      1.297
REMARK  4 active torsions:
REMARK  status: ('A' for Active; 'I' for Inactive)
REMARK    1  A    between atoms: C4_4  and  N1_5 
REMARK    2  A    between atoms: N1_5  and  C5_7 
REMARK    3  A    between atoms: C5_7  and  C6_8 
REMARK    4  A    between atoms: C6_8  and  N2_9 
ROOT
HETATM    1  C6  UNL     1       9.007  17.854  17.531  1.00  0.00     0.077 C 
ENDROOT
BRANCH   1   2
HETATM    2  C5  UNL     1      10.522  17.760  17.475  1.00  0.00     0.158 C 
BRANCH   2   3
HETATM    3  N1  UNL     1      11.172  17.711  18.739  1.00  0.00    -0.413 N 
ATOM      4  H1  UNL     1      11.567  16.835  19.081  1.00  0.00     0.153 HD
BRANCH   3   5
HETATM    5  C4  UNL     1      11.266  18.884  19.516  1.00  0.00     0.076 C 
HETATM    6  C3  UNL     1      12.508  19.678  19.014  1.00  0.00     0.024 C 
HETATM    7  C2  UNL     1      13.607  18.666  19.375  1.00  0.00     0.002 C 
HETATM    8  C1  UNL     1      13.143  18.047  20.703  1.00  0.00     0.002 C 
HETATM    9  C11 UNL     1      11.747  18.602  20.923  1.00  0.00     0.024 C 
ENDBRANCH   3   5
ENDBRANCH   2   3
ENDBRANCH   1   2
BRANCH   1  10
HETATM   10  N2  UNL     1       8.425  17.577  16.279  1.00  0.00    -0.389 N 
HETATM   11  C7  UNL     1       7.247  18.233  15.883  1.00  0.00     0.149 C 
HETATM   12  C8  UNL     1       7.166  18.027  14.349  1.00  0.00     0.252 C 
HETATM   13  N3  UNL     1       6.707  16.671  14.159  1.00  0.00    -0.072 N 
HETATM   14  C9  UNL     1       7.117  15.786  15.222  1.00  0.00     0.252 C 
ATOM     15  H32 UNL     1       5.695  16.643  14.031  1.00  0.00     0.277 HD
ATOM     16  H31 UNL     1       6.999  16.311  13.250  1.00  0.00     0.277 HD
HETATM   17  C10 UNL     1       8.416  16.217  15.857  1.00  0.00     0.149 C 
ENDBRANCH   1  10
TORSDOF 4
ENDMDL
