MODEL 1
REMARK VINA RESULT: -5.116960997      0.000      0.000
REMARK  2 active torsions:
REMARK  status: ('A' for Active; 'I' for Inactive)
REMARK    1  A    between atoms: C2_2  and  C3_3 
REMARK    2  A    between atoms: C9_10  and  O2_11 
ROOT
HETATM    1  C3  UNL     1     133.641   3.722  68.778  1.00  0.00     0.182 C 
HETATM    2  C4  UNL     1     134.975   3.834  68.067  1.00  0.00     0.084 C 
HETATM    3  O1  UNL     1     133.122   2.480  68.445  1.00  0.00    -0.346 OA
HETATM    4  C5  UNL     1     132.082   2.078  69.256  1.00  0.00     0.130 C 
HETATM    5  C6  UNL     1     131.626   0.714  68.758  1.00  0.00     0.040 C 
HETATM    6  C7  UNL     1     132.563   1.889  70.671  1.00  0.00     0.065 C 
HETATM    7  C8  UNL     1     132.950   0.452  70.958  1.00  0.00     0.017 C 
HETATM    8  C9  UNL     1     133.808   2.729  70.864  1.00  0.00     0.267 C 
HETATM    9  O3  UNL     1     133.766   3.910  70.146  1.00  0.00    -0.322 OA
ENDROOT
BRANCH   1  10
HETATM   10  C2  UNL     1     132.796   4.839  68.269  1.00  0.00     0.030 C 
HETATM   11  C1  UNL     1     133.327   6.045  68.201  1.00  0.00     0.012 C 
ENDBRANCH   1  10
BRANCH   8  12
HETATM   12  O2  UNL     1     133.863   3.063  72.217  1.00  0.00    -0.371 OA
ATOM     13  H2  UNL     1     134.534   2.518  72.608  1.00  0.00     0.212 HD
ENDBRANCH   8  12
TORSDOF 2
ENDMDL
MODEL 2
REMARK VINA RESULT: -5.022539446      1.082      2.733
REMARK  2 active torsions:
REMARK  status: ('A' for Active; 'I' for Inactive)
REMARK    1  A    between atoms: C2_2  and  C3_3 
REMARK    2  A    between atoms: C9_10  and  O2_11 
ROOT
HETATM    1  C3  UNL     1     133.739   4.022  68.770  1.00  0.00     0.182 C 
HETATM    2  C4  UNL     1     133.159   5.419  68.678  1.00  0.00     0.084 C 
HETATM    3  O1  UNL     1     133.734   3.682  70.115  1.00  0.00    -0.346 OA
HETATM    4  C5  UNL     1     133.916   2.336  70.348  1.00  0.00     0.130 C 
HETATM    5  C6  UNL     1     133.892   2.134  71.856  1.00  0.00     0.040 C 
HETATM    6  C7  UNL     1     132.765   1.545  69.781  1.00  0.00     0.065 C 
HETATM    7  C8  UNL     1     131.691   1.275  70.816  1.00  0.00     0.017 C 
HETATM    8  C9  UNL     1     132.124   2.364  68.681  1.00  0.00     0.267 C 
HETATM    9  O3  UNL     1     133.044   3.119  67.979  1.00  0.00    -0.322 OA
ENDROOT
BRANCH   1  10
HETATM   10  C2  UNL     1     135.120   4.100  68.217  1.00  0.00     0.030 C 
HETATM   11  C1  UNL     1     135.833   5.183  68.463  1.00  0.00     0.012 C 
ENDBRANCH   1  10
BRANCH   8  12
HETATM   12  O2  UNL     1     131.555   1.459  67.785  1.00  0.00    -0.371 OA
ATOM     13  H2  UNL     1     131.807   0.590  68.075  1.00  0.00     0.212 HD
ENDBRANCH   8  12
TORSDOF 2
ENDMDL
MODEL 3
REMARK VINA RESULT: -4.996462330     12.866     14.373
REMARK  2 active torsions:
REMARK  status: ('A' for Active; 'I' for Inactive)
REMARK    1  A    between atoms: C2_2  and  C3_3 
REMARK    2  A    between atoms: C9_10  and  O2_11 
ROOT
HETATM    1  C3  UNL     1     124.693  13.712  69.883  1.00  0.00     0.182 C 
HETATM    2  C4  UNL     1     125.293  15.079  70.150  1.00  0.00     0.084 C 
HETATM    3  O1  UNL     1     124.162  13.274  71.087  1.00  0.00    -0.346 OA
HETATM    4  C5  UNL     1     123.296  12.210  70.957  1.00  0.00     0.130 C 
HETATM    5  C6  UNL     1     122.813  11.851  72.354  1.00  0.00     0.040 C 
HETATM    6  C7  UNL     1     122.080  12.616  70.164  1.00  0.00     0.065 C 
HETATM    7  C8  UNL     1     120.936  13.055  71.056  1.00  0.00     0.017 C 
HETATM    8  C9  UNL     1     122.452  13.805  69.304  1.00  0.00     0.267 C 
HETATM    9  O3  UNL     1     123.759  13.748  68.858  1.00  0.00    -0.322 OA
ENDROOT
BRANCH   1  10
HETATM   10  C2  UNL     1     125.810  12.844  69.413  1.00  0.00     0.030 C 
HETATM   11  C1  UNL     1     126.885  13.424  68.912  1.00  0.00     0.012 C 
ENDBRANCH   1  10
BRANCH   8  12
HETATM   12  O2  UNL     1     121.625  13.764  68.181  1.00  0.00    -0.371 OA
ATOM     13  H2  UNL     1     121.734  14.592  67.730  1.00  0.00     0.212 HD
ENDBRANCH   8  12
TORSDOF 2
ENDMDL
MODEL 4
REMARK VINA RESULT: -4.912287434      2.407      4.054
REMARK  2 active torsions:
REMARK  status: ('A' for Active; 'I' for Inactive)
REMARK    1  A    between atoms: C2_2  and  C3_3 
REMARK    2  A    between atoms: C9_10  and  O2_11 
ROOT
HETATM    1  C3  UNL     1     130.820   5.029  67.378  1.00  0.00     0.182 C 
HETATM    2  C4  UNL     1     129.457   5.417  67.915  1.00  0.00     0.084 C 
HETATM    3  O1  UNL     1     131.753   5.531  68.273  1.00  0.00    -0.346 OA
HETATM    4  C5  UNL     1     133.013   4.994  68.121  1.00  0.00     0.130 C 
HETATM    5  C6  UNL     1     133.908   5.648  69.163  1.00  0.00     0.040 C 
HETATM    6  C7  UNL     1     132.995   3.518  68.424  1.00  0.00     0.065 C 
HETATM    7  C8  UNL     1     133.367   3.224  69.864  1.00  0.00     0.017 C 
HETATM    8  C9  UNL     1     131.583   3.011  68.220  1.00  0.00     0.267 C 
HETATM    9  O3  UNL     1     130.931   3.660  67.188  1.00  0.00    -0.322 OA
ENDROOT
BRANCH   1  10
HETATM   10  C2  UNL     1     130.940   5.657  66.032  1.00  0.00     0.030 C 
HETATM   11  C1  UNL     1     130.177   5.199  65.057  1.00  0.00     0.012 C 
ENDBRANCH   1  10
BRANCH   8  12
HETATM   12  O2  UNL     1     131.686   1.664  67.869  1.00  0.00    -0.371 OA
ATOM     13  H2  UNL     1     131.608   1.164  68.672  1.00  0.00     0.212 HD
ENDBRANCH   8  12
TORSDOF 2
ENDMDL
MODEL 5
REMARK VINA RESULT: -4.845721519      5.695      7.227
REMARK  2 active torsions:
REMARK  status: ('A' for Active; 'I' for Inactive)
REMARK    1  A    between atoms: C2_2  and  C3_3 
REMARK    2  A    between atoms: C9_10  and  O2_11 
ROOT
HETATM    1  C3  UNL     1     127.556   6.031  68.309  1.00  0.00     0.182 C 
HETATM    2  C4  UNL     1     126.310   5.281  68.737  1.00  0.00     0.084 C 
HETATM    3  O1  UNL     1     128.519   5.070  68.038  1.00  0.00    -0.346 OA
HETATM    4  C5  UNL     1     129.598   5.551  67.327  1.00  0.00     0.130 C 
HETATM    5  C6  UNL     1     130.555   4.386  67.122  1.00  0.00     0.040 C 
HETATM    6  C7  UNL     1     129.163   6.006  65.958  1.00  0.00     0.065 C 
HETATM    7  C8  UNL     1     129.334   4.922  64.912  1.00  0.00     0.017 C 
HETATM    8  C9  UNL     1     127.686   6.335  66.016  1.00  0.00     0.267 C 
HETATM    9  O3  UNL     1     127.311   6.872  67.234  1.00  0.00    -0.322 OA
ENDROOT
BRANCH   1  10
HETATM   10  C2  UNL     1     127.940   6.904  69.454  1.00  0.00     0.030 C 
HETATM   11  C1  UNL     1     126.980   7.411  70.204  1.00  0.00     0.012 C 
ENDBRANCH   1  10
BRANCH   8  12
HETATM   12  O2  UNL     1     127.451   7.305  65.041  1.00  0.00    -0.371 OA
ATOM     13  H2  UNL     1     126.641   7.066  64.606  1.00  0.00     0.212 HD
ENDBRANCH   8  12
TORSDOF 2
ENDMDL
