MODEL 1
REMARK VINA RESULT: -10.635242543      0.000      0.000
REMARK  8 active torsions:
REMARK  status: ('A' for Active; 'I' for Inactive)
REMARK    1  A    between atoms: C3_4  and  N2_5 
REMARK       I    between atoms: N2_5  and  C4_7 
REMARK    2  A    between atoms: C4_7  and  C5_9 
REMARK    3  A    between atoms: N3_10  and  N4_12 
REMARK    4  A    between atoms: C9_21  and  C10_22 
REMARK       I    between atoms: C10_22  and  N6_24 
REMARK    5  A    between atoms: N6_24  and  N7_26 
REMARK    6  A    between atoms: C19_39  and  N10_40 
REMARK    7  A    between atoms: N10_40  and  C20_42 
REMARK    8  A    between atoms: C22_44  and  N11_45 
ROOT
HETATM    1  N1  UNL     1     -13.284  -2.175   1.531  1.00  0.00    -0.191 NA
HETATM    2  C1  UNL     1     -14.029  -1.419   1.084  1.00  0.00     0.106 C 
HETATM    3  C2  UNL     1     -14.962  -0.496   0.508  1.00  0.00     0.123 A 
HETATM    4  C3  UNL     1     -15.585  -0.908  -0.673  1.00  0.00     0.174 A 
HETATM    5  O2  UNL     1     -16.440  -0.070  -1.209  1.00  0.00    -0.291 OA
HETATM    6  C6  UNL     1     -16.740   1.095  -0.723  1.00  0.00     0.090 A 
HETATM    7  C7  UNL     1     -17.668   1.905  -1.380  1.00  0.00     0.039 A 
HETATM    8  C8  UNL     1     -17.961   3.134  -0.834  1.00  0.00     0.020 A 
HETATM    9  C9  UNL     1     -17.376   3.593   0.328  1.00  0.00     0.034 A 
HETATM   10  C17 UNL     1     -16.468   2.780   0.956  1.00  0.00     0.033 A 
HETATM   11  C18 UNL     1     -16.149   1.520   0.424  1.00  0.00     0.027 A 
HETATM   12  C19 UNL     1     -15.216   0.721   1.097  1.00  0.00     0.072 A 
ENDROOT
BRANCH   4  13
HETATM   13  N2  UNL     1     -15.300  -2.173  -1.256  1.00  0.00    -0.301 N 
HETATM   14  C4  UNL     1     -14.546  -2.241  -2.448  1.00  0.00     0.264 C 
HETATM   15  O1  UNL     1     -14.126  -1.189  -2.994  1.00  0.00    -0.267 OA
ATOM     16  H2  UNL     1     -15.639  -3.028  -0.815  1.00  0.00     0.171 HD
BRANCH  14  17
HETATM   17  C5  UNL     1     -14.233  -3.513  -3.076  1.00  0.00     0.182 C 
HETATM   18  N3  UNL     1     -14.514  -3.750  -4.321  1.00  0.00    -0.293 N 
ATOM     19  H3  UNL     1     -14.966  -3.016  -4.865  1.00  0.00     0.187 HD
BRANCH  18  20
HETATM   20  N4  UNL     1     -14.229  -4.951  -4.944  1.00  0.00    -0.250 N 
HETATM   21  N5  UNL     1     -14.744  -5.268  -6.064  1.00  0.00    -0.331 N 
ATOM     22  H52 UNL     1     -15.384  -4.606  -6.501  1.00  0.00     0.178 HD
ATOM     23  H51 UNL     1     -14.533  -6.154  -6.524  1.00  0.00     0.178 HD
ATOM     24  H4  UNL     1     -13.587  -5.602  -4.492  1.00  0.00     0.207 HD
ENDBRANCH  18  20
ENDBRANCH  14  17
ENDBRANCH   4  13
BRANCH  12  25
HETATM   25  N10 UNL     1     -14.720   1.184   2.140  1.00  0.00    -0.339 N 
ATOM     26  H10 UNL     1     -15.328   0.998   2.938  1.00  0.00     0.167 HD
BRANCH  25  27
HETATM   27  C20 UNL     1     -13.605   1.866   2.536  1.00  0.00     0.124 A 
HETATM   28  C21 UNL     1     -12.412   1.280   2.977  1.00  0.00     0.099 A 
HETATM   29  C22 UNL     1     -11.513   2.267   3.272  1.00  0.00     0.117 A 
HETATM   30  N12 UNL     1     -12.139   3.438   3.017  1.00  0.00    -0.284 N 
HETATM   31  N13 UNL     1     -13.365   3.210   2.586  1.00  0.00    -0.284 N 
ATOM     32  H12 UNL     1     -11.724   4.362   3.139  1.00  0.00     0.188 HD
ATOM     33  H13 UNL     1     -14.037   3.933   2.328  1.00  0.00     0.188 HD
BRANCH  29  34
HETATM   34  N11 UNL     1     -10.312   2.073   3.707  1.00  0.00    -0.384 N 
ATOM     35 2H11 UNL     1      -9.606   1.426   3.357  1.00  0.00     0.157 HD
ATOM     36 1H11 UNL     1      -9.887   2.563   4.494  1.00  0.00     0.157 HD
ENDBRANCH  29  34
ENDBRANCH  25  27
ENDBRANCH  12  25
BRANCH   9  37
HETATM   37  C10 UNL     1     -17.734   4.938   0.851  1.00  0.00     0.270 C 
HETATM   38  O3  UNL     1     -16.763   5.733   1.066  1.00  0.00    -0.266 OA
HETATM   39  N6  UNL     1     -19.080   5.223   1.064  1.00  0.00    -0.253 N 
ATOM     40  H6  UNL     1     -19.729   4.470   0.835  1.00  0.00     0.191 HD
BRANCH  39  41
HETATM   41  N7  UNL     1     -19.663   6.386   1.542  1.00  0.00    -0.172 N 
HETATM   42  C11 UNL     1     -21.005   6.574   1.602  1.00  0.00     0.223 A 
HETATM   43  S1  UNL     1     -22.150   5.531   1.150  1.00  0.00    -0.037 SA
HETATM   44  N8  UNL     1     -21.280   7.792   2.107  1.00  0.00    -0.234 N 
HETATM   45  N9  UNL     1     -20.147   8.384   2.370  1.00  0.00    -0.232 N 
HETATM   46  C16 UNL     1     -22.516   8.472   2.374  1.00  0.00     0.115 A 
HETATM   47  C12 UNL     1     -19.143   7.505   2.017  1.00  0.00     0.365 A 
HETATM   48  C13 UNL     1     -20.032   9.712   2.927  1.00  0.00     0.158 A 
HETATM   49  O4  UNL     1     -17.959   7.829   2.169  1.00  0.00    -0.243 OA
HETATM   50  C14 UNL     1     -21.301  10.401   3.197  1.00  0.00     0.050 A 
HETATM   51  C15 UNL     1     -22.533   9.682   2.880  1.00  0.00    -0.006 A 
ENDBRANCH  39  41
ENDBRANCH   9  37
TORSDOF 8
ENDMDL
MODEL 2
REMARK VINA RESULT: -10.503249771      0.904      1.059
REMARK  8 active torsions:
REMARK  status: ('A' for Active; 'I' for Inactive)
REMARK    1  A    between atoms: C3_4  and  N2_5 
REMARK       I    between atoms: N2_5  and  C4_7 
REMARK    2  A    between atoms: C4_7  and  C5_9 
REMARK    3  A    between atoms: N3_10  and  N4_12 
REMARK    4  A    between atoms: C9_21  and  C10_22 
REMARK       I    between atoms: C10_22  and  N6_24 
REMARK    5  A    between atoms: N6_24  and  N7_26 
REMARK    6  A    between atoms: C19_39  and  N10_40 
REMARK    7  A    between atoms: N10_40  and  C20_42 
REMARK    8  A    between atoms: C22_44  and  N11_45 
ROOT
HETATM    1  N1  UNL     1     -13.249  -2.212   1.579  1.00  0.00    -0.191 NA
HETATM    2  C1  UNL     1     -13.989  -1.455   1.126  1.00  0.00     0.106 C 
HETATM    3  C2  UNL     1     -14.914  -0.530   0.542  1.00  0.00     0.123 A 
HETATM    4  C3  UNL     1     -15.521  -0.936  -0.650  1.00  0.00     0.174 A 
HETATM    5  O2  UNL     1     -16.369  -0.096  -1.194  1.00  0.00    -0.291 OA
HETATM    6  C6  UNL     1     -16.676   1.066  -0.706  1.00  0.00     0.090 A 
HETATM    7  C7  UNL     1     -17.596   1.880  -1.372  1.00  0.00     0.039 A 
HETATM    8  C8  UNL     1     -17.898   3.105  -0.824  1.00  0.00     0.020 A 
HETATM    9  C9  UNL     1     -17.329   3.559   0.349  1.00  0.00     0.034 A 
HETATM   10  C17 UNL     1     -16.429   2.743   0.985  1.00  0.00     0.033 A 
HETATM   11  C18 UNL     1     -16.101   1.486   0.451  1.00  0.00     0.027 A 
HETATM   12  C19 UNL     1     -15.178   0.684   1.133  1.00  0.00     0.072 A 
ENDROOT
BRANCH   4  13
HETATM   13  N2  UNL     1     -15.227  -2.198  -1.236  1.00  0.00    -0.301 N 
HETATM   14  C4  UNL     1     -14.459  -2.259  -2.419  1.00  0.00     0.264 C 
HETATM   15  O1  UNL     1     -14.035  -1.204  -2.956  1.00  0.00    -0.267 OA
ATOM     16  H2  UNL     1     -15.570  -3.055  -0.803  1.00  0.00     0.171 HD
BRANCH  14  17
HETATM   17  C5  UNL     1     -14.137  -3.527  -3.049  1.00  0.00     0.182 C 
HETATM   18  N3  UNL     1     -13.001  -4.123  -2.850  1.00  0.00    -0.293 N 
ATOM     19  H3  UNL     1     -12.322  -3.680  -2.231  1.00  0.00     0.187 HD
BRANCH  18  20
HETATM   20  N4  UNL     1     -12.668  -5.330  -3.437  1.00  0.00    -0.250 N 
HETATM   21  N5  UNL     1     -11.895  -6.166  -2.866  1.00  0.00    -0.331 N 
ATOM     22  H52 UNL     1     -11.520  -5.923  -1.950  1.00  0.00     0.178 HD
ATOM     23  H51 UNL     1     -11.650  -7.056  -3.299  1.00  0.00     0.178 HD
ATOM     24  H4  UNL     1     -13.052  -5.556  -4.354  1.00  0.00     0.207 HD
ENDBRANCH  18  20
ENDBRANCH  14  17
ENDBRANCH   4  13
BRANCH  12  25
HETATM   25  N10 UNL     1     -14.697   1.142   2.185  1.00  0.00    -0.339 N 
ATOM     26  H10 UNL     1     -15.376   1.085   2.944  1.00  0.00     0.167 HD
BRANCH  25  27
HETATM   27  C20 UNL     1     -13.531   1.698   2.628  1.00  0.00     0.124 A 
HETATM   28  C21 UNL     1     -12.777   2.656   1.937  1.00  0.00     0.099 A 
HETATM   29  C22 UNL     1     -11.686   2.993   2.690  1.00  0.00     0.117 A 
HETATM   30  N12 UNL     1     -11.766   2.257   3.821  1.00  0.00    -0.284 N 
HETATM   31  N13 UNL     1     -12.843   1.496   3.791  1.00  0.00    -0.284 N 
ATOM     32  H12 UNL     1     -11.091   2.286   4.586  1.00  0.00     0.188 HD
ATOM     33  H13 UNL     1     -13.122   0.850   4.529  1.00  0.00     0.188 HD
BRANCH  29  34
HETATM   34  N11 UNL     1     -10.783   3.850   2.347  1.00  0.00    -0.384 N 
ATOM     35 2H11 UNL     1     -10.831   4.572   1.629  1.00  0.00     0.157 HD
ATOM     36 1H11 UNL     1      -9.856   3.926   2.767  1.00  0.00     0.157 HD
ENDBRANCH  29  34
ENDBRANCH  25  27
ENDBRANCH  12  25
BRANCH   9  37
HETATM   37  C10 UNL     1     -17.695   4.901   0.874  1.00  0.00     0.270 C 
HETATM   38  O3  UNL     1     -16.726   5.687   1.127  1.00  0.00    -0.266 OA
HETATM   39  N6  UNL     1     -19.046   5.193   1.046  1.00  0.00    -0.253 N 
ATOM     40  H6  UNL     1     -19.691   4.445   0.790  1.00  0.00     0.191 HD
BRANCH  39  41
HETATM   41  N7  UNL     1     -19.636   6.355   1.517  1.00  0.00    -0.172 N 
HETATM   42  C11 UNL     1     -20.979   6.534   1.574  1.00  0.00     0.223 A 
HETATM   43  S1  UNL     1     -22.117   5.482   1.126  1.00  0.00    -0.037 SA
HETATM   44  N8  UNL     1     -21.262   7.753   2.073  1.00  0.00    -0.234 N 
HETATM   45  N9  UNL     1     -20.133   8.354   2.335  1.00  0.00    -0.232 N 
HETATM   46  C16 UNL     1     -22.503   8.427   2.333  1.00  0.00     0.115 A 
HETATM   47  C12 UNL     1     -19.123   7.479   1.988  1.00  0.00     0.365 A 
HETATM   48  C13 UNL     1     -20.027   9.685   2.885  1.00  0.00     0.158 A 
HETATM   49  O4  UNL     1     -17.941   7.810   2.139  1.00  0.00    -0.243 OA
HETATM   50  C14 UNL     1     -21.301  10.368   3.149  1.00  0.00     0.050 A 
HETATM   51  C15 UNL     1     -22.528   9.640   2.833  1.00  0.00    -0.006 A 
ENDBRANCH  39  41
ENDBRANCH   9  37
TORSDOF 8
ENDMDL
MODEL 3
REMARK VINA RESULT: -9.790238157      1.683      1.883
REMARK  8 active torsions:
REMARK  status: ('A' for Active; 'I' for Inactive)
REMARK    1  A    between atoms: C3_4  and  N2_5 
REMARK       I    between atoms: N2_5  and  C4_7 
REMARK    2  A    between atoms: C4_7  and  C5_9 
REMARK    3  A    between atoms: N3_10  and  N4_12 
REMARK    4  A    between atoms: C9_21  and  C10_22 
REMARK       I    between atoms: C10_22  and  N6_24 
REMARK    5  A    between atoms: N6_24  and  N7_26 
REMARK    6  A    between atoms: C19_39  and  N10_40 
REMARK    7  A    between atoms: N10_40  and  C20_42 
REMARK    8  A    between atoms: C22_44  and  N11_45 
ROOT
HETATM    1  N1  UNL     1     -12.037  -1.383   2.385  1.00  0.00    -0.191 NA
HETATM    2  C1  UNL     1     -12.864  -0.772   1.866  1.00  0.00     0.106 C 
HETATM    3  C2  UNL     1     -13.894  -0.031   1.201  1.00  0.00     0.123 A 
HETATM    4  C3  UNL     1     -14.445  -0.628   0.064  1.00  0.00     0.174 A 
HETATM    5  O2  UNL     1     -15.389   0.042  -0.553  1.00  0.00    -0.291 OA
HETATM    6  C6  UNL     1     -15.836   1.202  -0.182  1.00  0.00     0.090 A 
HETATM    7  C7  UNL     1     -16.848   1.825  -0.917  1.00  0.00     0.039 A 
HETATM    8  C8  UNL     1     -17.298   3.055  -0.494  1.00  0.00     0.020 A 
HETATM    9  C9  UNL     1     -16.790   3.692   0.621  1.00  0.00     0.034 A 
HETATM   10  C17 UNL     1     -15.798   3.061   1.326  1.00  0.00     0.033 A 
HETATM   11  C18 UNL     1     -15.318   1.805   0.919  1.00  0.00     0.027 A 
HETATM   12  C19 UNL     1     -14.305   1.196   1.669  1.00  0.00     0.072 A 
ENDROOT
BRANCH   4  13
HETATM   13  N2  UNL     1     -13.999  -1.898  -0.393  1.00  0.00    -0.301 N 
HETATM   14  C4  UNL     1     -13.091  -1.975  -1.472  1.00  0.00     0.264 C 
HETATM   15  O1  UNL     1     -12.677  -0.926  -2.028  1.00  0.00    -0.267 OA
ATOM     16  H2  UNL     1     -14.333  -2.751   0.056  1.00  0.00     0.171 HD
BRANCH  14  17
HETATM   17  C5  UNL     1     -12.611  -3.252  -1.969  1.00  0.00     0.182 C 
HETATM   18  N3  UNL     1     -11.552  -3.824  -1.481  1.00  0.00    -0.293 N 
ATOM     19  H3  UNL     1     -11.051  -3.355  -0.727  1.00  0.00     0.187 HD
BRANCH  18  20
HETATM   20  N4  UNL     1     -11.072  -5.038  -1.936  1.00  0.00    -0.250 N 
HETATM   21  N5  UNL     1      -9.921  -5.474  -1.608  1.00  0.00    -0.331 N 
ATOM     22  H52 UNL     1      -9.350  -4.897  -0.992  1.00  0.00     0.178 HD
ATOM     23  H51 UNL     1      -9.568  -6.370  -1.943  1.00  0.00     0.178 HD
ATOM     24  H4  UNL     1     -11.658  -5.602  -2.552  1.00  0.00     0.207 HD
ENDBRANCH  18  20
ENDBRANCH  14  17
ENDBRANCH   4  13
BRANCH  12  25
HETATM   25  N10 UNL     1     -13.884   1.815   2.663  1.00  0.00    -0.339 N 
ATOM     26  H10 UNL     1     -14.558   1.765   3.427  1.00  0.00     0.167 HD
BRANCH  25  27
HETATM   27  C20 UNL     1     -12.789   2.541   3.037  1.00  0.00     0.124 A 
HETATM   28  C21 UNL     1     -12.342   3.711   2.411  1.00  0.00     0.099 A 
HETATM   29  C22 UNL     1     -11.232   4.170   3.065  1.00  0.00     0.117 A 
HETATM   30  N12 UNL     1     -11.001   3.301   4.075  1.00  0.00    -0.284 N 
HETATM   31  N13 UNL     1     -11.909   2.344   4.064  1.00  0.00    -0.284 N 
ATOM     32  H12 UNL     1     -10.237   3.375   4.747  1.00  0.00     0.188 HD
ATOM     33  H13 UNL     1     -11.949   1.568   4.725  1.00  0.00     0.188 HD
BRANCH  29  34
HETATM   34  N11 UNL     1     -10.567   5.231   2.746  1.00  0.00    -0.384 N 
ATOM     35 2H11 UNL     1     -10.582   6.148   3.191  1.00  0.00     0.157 HD
ATOM     36 1H11 UNL     1      -9.907   5.298   1.972  1.00  0.00     0.157 HD
ENDBRANCH  29  34
ENDBRANCH  25  27
ENDBRANCH  12  25
BRANCH   9  37
HETATM   37  C10 UNL     1     -17.317   5.026   1.010  1.00  0.00     0.270 C 
HETATM   38  O3  UNL     1     -16.452   5.944   1.180  1.00  0.00    -0.266 OA
HETATM   39  N6  UNL     1     -18.695   5.170   1.158  1.00  0.00    -0.253 N 
ATOM     40  H6  UNL     1     -19.245   4.329   0.980  1.00  0.00     0.191 HD
BRANCH  39  41
HETATM   41  N7  UNL     1     -19.424   6.294   1.513  1.00  0.00    -0.172 N 
HETATM   42  C11 UNL     1     -20.776   6.359   1.431  1.00  0.00     0.223 A 
HETATM   43  S1  UNL     1     -21.772   5.194   0.927  1.00  0.00    -0.037 SA
HETATM   44  N8  UNL     1     -21.207   7.567   1.840  1.00  0.00    -0.234 N 
HETATM   45  N9  UNL     1     -20.164   8.274   2.180  1.00  0.00    -0.232 N 
HETATM   46  C16 UNL     1     -22.519   8.141   1.947  1.00  0.00     0.115 A 
HETATM   47  C12 UNL     1     -19.055   7.477   1.975  1.00  0.00     0.365 A 
HETATM   48  C13 UNL     1     -20.223   9.631   2.672  1.00  0.00     0.158 A 
HETATM   49  O4  UNL     1     -17.926   7.916   2.223  1.00  0.00    -0.243 OA
HETATM   50  C14 UNL     1     -21.570  10.210   2.779  1.00  0.00     0.050 A 
HETATM   51  C15 UNL     1     -22.694   9.366   2.382  1.00  0.00    -0.006 A 
ENDBRANCH  39  41
ENDBRANCH   9  37
TORSDOF 8
ENDMDL
MODEL 4
REMARK VINA RESULT: -9.769981700      0.964      1.026
REMARK  8 active torsions:
REMARK  status: ('A' for Active; 'I' for Inactive)
REMARK    1  A    between atoms: C3_4  and  N2_5 
REMARK       I    between atoms: N2_5  and  C4_7 
REMARK    2  A    between atoms: C4_7  and  C5_9 
REMARK    3  A    between atoms: N3_10  and  N4_12 
REMARK    4  A    between atoms: C9_21  and  C10_22 
REMARK       I    between atoms: C10_22  and  N6_24 
REMARK    5  A    between atoms: N6_24  and  N7_26 
REMARK    6  A    between atoms: C19_39  and  N10_40 
REMARK    7  A    between atoms: N10_40  and  C20_42 
REMARK    8  A    between atoms: C22_44  and  N11_45 
ROOT
HETATM    1  N1  UNL     1     -12.187  -0.917   0.134  1.00  0.00    -0.191 NA
HETATM    2  C1  UNL     1     -13.198  -0.369   0.066  1.00  0.00     0.106 C 
HETATM    3  C2  UNL     1     -14.466   0.291  -0.029  1.00  0.00     0.123 A 
HETATM    4  C3  UNL     1     -15.492  -0.433  -0.641  1.00  0.00     0.174 A 
HETATM    5  O2  UNL     1     -16.657   0.162  -0.735  1.00  0.00    -0.291 OA
HETATM    6  C6  UNL     1     -16.914   1.359  -0.304  1.00  0.00     0.090 A 
HETATM    7  C7  UNL     1     -18.195   1.893  -0.457  1.00  0.00     0.039 A 
HETATM    8  C8  UNL     1     -18.431   3.165   0.013  1.00  0.00     0.020 A 
HETATM    9  C9  UNL     1     -17.455   3.927   0.624  1.00  0.00     0.034 A 
HETATM   10  C17 UNL     1     -16.206   3.381   0.764  1.00  0.00     0.033 A 
HETATM   11  C18 UNL     1     -15.935   2.085   0.295  1.00  0.00     0.027 A 
HETATM   12  C19 UNL     1     -14.645   1.566   0.458  1.00  0.00     0.072 A 
ENDROOT
BRANCH   4  13
HETATM   13  N2  UNL     1     -15.275  -1.749  -1.134  1.00  0.00    -0.301 N 
HETATM   14  C4  UNL     1     -14.902  -1.939  -2.483  1.00  0.00     0.264 C 
HETATM   15  O1  UNL     1     -14.762  -0.952  -3.247  1.00  0.00    -0.267 OA
ATOM     16  H2  UNL     1     -15.388  -2.553  -0.516  1.00  0.00     0.171 HD
BRANCH  14  17
HETATM   17  C5  UNL     1     -14.671  -3.267  -3.025  1.00  0.00     0.182 C 
HETATM   18  N3  UNL     1     -14.346  -3.452  -4.268  1.00  0.00    -0.293 N 
ATOM     19  H3  UNL     1     -14.252  -2.636  -4.872  1.00  0.00     0.187 HD
BRANCH  18  20
HETATM   20  N4  UNL     1     -14.121  -4.704  -4.811  1.00  0.00    -0.250 N 
HETATM   21  N5  UNL     1     -13.106  -5.404  -4.493  1.00  0.00    -0.331 N 
ATOM     22  H52 UNL     1     -12.450  -5.016  -3.817  1.00  0.00     0.178 HD
ATOM     23  H51 UNL     1     -12.941  -6.328  -4.894  1.00  0.00     0.178 HD
ATOM     24  H4  UNL     1     -14.788  -5.077  -5.487  1.00  0.00     0.207 HD
ENDBRANCH  18  20
ENDBRANCH  14  17
ENDBRANCH   4  13
BRANCH  12  25
HETATM   25  N10 UNL     1     -13.805   2.295   1.015  1.00  0.00    -0.339 N 
ATOM     26  H10 UNL     1     -13.666   3.153   0.481  1.00  0.00     0.167 HD
BRANCH  25  27
HETATM   27  C20 UNL     1     -13.014   2.291   2.128  1.00  0.00     0.124 A 
HETATM   28  C21 UNL     1     -11.951   3.171   2.369  1.00  0.00     0.099 A 
HETATM   29  C22 UNL     1     -11.401   2.883   3.588  1.00  0.00     0.117 A 
HETATM   30  N12 UNL     1     -12.111   1.846   4.088  1.00  0.00    -0.284 N 
HETATM   31  N13 UNL     1     -13.057   1.494   3.237  1.00  0.00    -0.284 N 
ATOM     32  H12 UNL     1     -11.940   1.402   4.990  1.00  0.00     0.188 HD
ATOM     33  H13 UNL     1     -13.723   0.737   3.387  1.00  0.00     0.188 HD
BRANCH  29  34
HETATM   34  N11 UNL     1     -10.401   3.505   4.117  1.00  0.00    -0.384 N 
ATOM     35 2H11 UNL     1     -10.140   4.486   4.024  1.00  0.00     0.157 HD
ATOM     36 1H11 UNL     1      -9.703   3.080   4.729  1.00  0.00     0.157 HD
ENDBRANCH  29  34
ENDBRANCH  25  27
ENDBRANCH  12  25
BRANCH   9  37
HETATM   37  C10 UNL     1     -17.781   5.299   1.096  1.00  0.00     0.270 C 
HETATM   38  O3  UNL     1     -16.792   6.081   1.273  1.00  0.00    -0.266 OA
HETATM   39  N6  UNL     1     -19.119   5.621   1.304  1.00  0.00    -0.253 N 
ATOM     40  H6  UNL     1     -19.785   4.873   1.110  1.00  0.00     0.191 HD
BRANCH  39  41
HETATM   41  N7  UNL     1     -19.674   6.815   1.740  1.00  0.00    -0.172 N 
HETATM   42  C11 UNL     1     -21.012   7.022   1.829  1.00  0.00     0.223 A 
HETATM   43  S1  UNL     1     -22.181   5.974   1.463  1.00  0.00    -0.037 SA
HETATM   44  N8  UNL     1     -21.257   8.268   2.280  1.00  0.00    -0.234 N 
HETATM   45  N9  UNL     1     -20.110   8.858   2.480  1.00  0.00    -0.232 N 
HETATM   46  C16 UNL     1     -22.476   8.977   2.547  1.00  0.00     0.115 A 
HETATM   47  C12 UNL     1     -19.127   7.949   2.143  1.00  0.00     0.365 A 
HETATM   48  C13 UNL     1     -19.963  10.210   2.965  1.00  0.00     0.158 A 
HETATM   49  O4  UNL     1     -17.935   8.264   2.244  1.00  0.00    -0.243 OA
HETATM   50  C14 UNL     1     -21.215  10.928   3.237  1.00  0.00     0.050 A 
HETATM   51  C15 UNL     1     -22.465  10.211   2.991  1.00  0.00    -0.006 A 
ENDBRANCH  39  41
ENDBRANCH   9  37
TORSDOF 8
ENDMDL
MODEL 5
REMARK VINA RESULT: -9.534048544      2.632      3.214
REMARK  8 active torsions:
REMARK  status: ('A' for Active; 'I' for Inactive)
REMARK    1  A    between atoms: C3_4  and  N2_5 
REMARK       I    between atoms: N2_5  and  C4_7 
REMARK    2  A    between atoms: C4_7  and  C5_9 
REMARK    3  A    between atoms: N3_10  and  N4_12 
REMARK    4  A    between atoms: C9_21  and  C10_22 
REMARK       I    between atoms: C10_22  and  N6_24 
REMARK    5  A    between atoms: N6_24  and  N7_26 
REMARK    6  A    between atoms: C19_39  and  N10_40 
REMARK    7  A    between atoms: N10_40  and  C20_42 
REMARK    8  A    between atoms: C22_44  and  N11_45 
ROOT
HETATM    1  N1  UNL     1     -10.192  -0.917   2.250  1.00  0.00    -0.191 NA
HETATM    2  C1  UNL     1     -10.966  -0.561   1.475  1.00  0.00     0.106 C 
HETATM    3  C2  UNL     1     -11.918  -0.136   0.493  1.00  0.00     0.123 A 
HETATM    4  C3  UNL     1     -11.855  -0.782  -0.745  1.00  0.00     0.174 A 
HETATM    5  O2  UNL     1     -12.723  -0.400  -1.652  1.00  0.00    -0.291 OA
HETATM    6  C6  UNL     1     -13.619   0.521  -1.477  1.00  0.00     0.090 A 
HETATM    7  C7  UNL     1     -14.494   0.846  -2.517  1.00  0.00     0.039 A 
HETATM    8  C8  UNL     1     -15.433   1.828  -2.295  1.00  0.00     0.020 A 
HETATM    9  C9  UNL     1     -15.540   2.500  -1.094  1.00  0.00     0.034 A 
HETATM   10  C17 UNL     1     -14.672   2.163  -0.088  1.00  0.00     0.033 A 
HETATM   11  C18 UNL     1     -13.703   1.165  -0.284  1.00  0.00     0.027 A 
HETATM   12  C19 UNL     1     -12.835   0.852   0.769  1.00  0.00     0.072 A 
ENDROOT
BRANCH   4  13
HETATM   13  N2  UNL     1     -10.896  -1.800  -0.999  1.00  0.00    -0.301 N 
HETATM   14  C4  UNL     1     -11.327  -3.088  -1.385  1.00  0.00     0.264 C 
HETATM   15  O1  UNL     1     -12.553  -3.337  -1.505  1.00  0.00    -0.267 OA
ATOM     16  H2  UNL     1      -9.900  -1.601  -0.903  1.00  0.00     0.171 HD
BRANCH  14  17
HETATM   17  C5  UNL     1     -10.380  -4.155  -1.654  1.00  0.00     0.182 C 
HETATM   18  N3  UNL     1     -10.766  -5.374  -1.878  1.00  0.00    -0.293 N 
ATOM     19  H3  UNL     1     -11.765  -5.578  -1.864  1.00  0.00     0.187 HD
BRANCH  18  20
HETATM   20  N4  UNL     1      -9.887  -6.410  -2.135  1.00  0.00    -0.250 N 
HETATM   21  N5  UNL     1      -8.707  -6.201  -2.567  1.00  0.00    -0.331 N 
ATOM     22  H52 UNL     1      -8.418  -5.236  -2.722  1.00  0.00     0.178 HD
ATOM     23  H51 UNL     1      -8.058  -6.965  -2.756  1.00  0.00     0.178 HD
ATOM     24  H4  UNL     1     -10.192  -7.370  -1.975  1.00  0.00     0.207 HD
ENDBRANCH  18  20
ENDBRANCH  14  17
ENDBRANCH   4  13
BRANCH  12  25
HETATM   25  N10 UNL     1     -12.977   1.488   1.829  1.00  0.00    -0.339 N 
ATOM     26  H10 UNL     1     -13.904   1.326   2.222  1.00  0.00     0.167 HD
BRANCH  25  27
HETATM   27  C20 UNL     1     -12.262   2.337   2.624  1.00  0.00     0.124 A 
HETATM   28  C21 UNL     1     -11.791   3.600   2.242  1.00  0.00     0.099 A 
HETATM   29  C22 UNL     1     -11.134   4.169   3.297  1.00  0.00     0.117 A 
HETATM   30  N12 UNL     1     -11.199   3.276   4.310  1.00  0.00    -0.284 N 
HETATM   31  N13 UNL     1     -11.857   2.200   3.922  1.00  0.00    -0.284 N 
ATOM     32  H12 UNL     1     -10.798   3.414   5.238  1.00  0.00     0.188 HD
ATOM     33  H13 UNL     1     -12.038   1.384   4.507  1.00  0.00     0.188 HD
BRANCH  29  34
HETATM   34  N11 UNL     1     -10.576   5.334   3.284  1.00  0.00    -0.384 N 
ATOM     35 2H11 UNL     1      -9.592   5.569   3.407  1.00  0.00     0.157 HD
ATOM     36 1H11 UNL     1     -11.066   6.218   3.142  1.00  0.00     0.157 HD
ENDBRANCH  29  34
ENDBRANCH  25  27
ENDBRANCH  12  25
BRANCH   9  37
HETATM   37  C10 UNL     1     -16.572   3.558  -0.932  1.00  0.00     0.270 C 
HETATM   38  O3  UNL     1     -16.852   4.232  -1.974  1.00  0.00    -0.266 OA
HETATM   39  N6  UNL     1     -17.145   3.730   0.326  1.00  0.00    -0.253 N 
ATOM     40  H6  UNL     1     -16.804   3.099   1.052  1.00  0.00     0.191 HD
BRANCH  39  41
HETATM   41  N7  UNL     1     -18.111   4.637   0.731  1.00  0.00    -0.172 N 
HETATM   42  C11 UNL     1     -19.442   4.402   0.621  1.00  0.00     0.223 A 
HETATM   43  S1  UNL     1     -20.146   3.079   0.025  1.00  0.00    -0.037 SA
HETATM   44  N8  UNL     1     -20.138   5.455   1.092  1.00  0.00    -0.234 N 
HETATM   45  N9  UNL     1     -19.284   6.354   1.498  1.00  0.00    -0.232 N 
HETATM   46  C16 UNL     1     -21.546   5.712   1.202  1.00  0.00     0.115 A 
HETATM   47  C12 UNL     1     -18.023   5.840   1.272  1.00  0.00     0.365 A 
HETATM   48  C13 UNL     1     -19.652   7.629   2.070  1.00  0.00     0.158 A 
HETATM   49  O4  UNL     1     -17.023   6.504   1.573  1.00  0.00    -0.243 OA
HETATM   50  C14 UNL     1     -21.095   7.884   2.179  1.00  0.00     0.050 A 
HETATM   51  C15 UNL     1     -21.997   6.836   1.706  1.00  0.00    -0.006 A 
ENDBRANCH  39  41
ENDBRANCH   9  37
TORSDOF 8
ENDMDL
