MODEL 1
REMARK VINA RESULT: -7.280163432      0.000      0.000
REMARK  10 active torsions:
REMARK  status: ('A' for Active; 'I' for Inactive)
REMARK    1  A    between atoms: C2_2  and  C3_3 
REMARK    2  A    between atoms: C3_3  and  C4_4 
REMARK    3  A    between atoms: C4_4  and  C5_5 
REMARK    4  A    between atoms: C5_5  and  C6_6 
REMARK    5  A    between atoms: C6_6  and  N1_7 
REMARK       I    between atoms: N1_7  and  C7_9 
REMARK    6  A    between atoms: C7_9  and  C8_11 
REMARK    7  A    between atoms: C9_14  and  O2_15 
REMARK    8  A    between atoms: C10_17  and  S1_18 
REMARK    9  A    between atoms: S1_18  and  N3_21 
REMARK   10  A    between atoms: C16_27  and  O5_28 
ROOT
HETATM    1  C8  UNL     1       5.577   7.551   1.726  1.00  0.00     0.138 A 
HETATM    2  N2  UNL     1       5.484   8.742   1.119  1.00  0.00    -0.329 N 
ATOM      3  H2  UNL     1       4.649   9.097   0.653  1.00  0.00     0.168 HD
HETATM    4  C9  UNL     1       6.654   9.404   1.212  1.00  0.00     0.167 A 
HETATM    5  C10 UNL     1       7.557   8.627   1.904  1.00  0.00     0.160 A 
HETATM    6  C16 UNL     1       6.849   7.457   2.220  1.00  0.00     0.125 A 
ENDROOT
BRANCH   1   7
HETATM    7  C7  UNL     1       4.502   6.539   1.834  1.00  0.00     0.271 C 
HETATM    8  N1  UNL     1       4.693   5.268   1.280  1.00  0.00    -0.356 N 
ATOM      9  H1  UNL     1       5.576   5.072   0.807  1.00  0.00     0.162 HD
HETATM   10  O1  UNL     1       3.426   6.812   2.415  1.00  0.00    -0.266 OA
BRANCH   8  11
HETATM   11  C6  UNL     1       3.705   4.222   1.343  1.00  0.00     0.123 C 
BRANCH  11  12
HETATM   12  C5  UNL     1       4.304   2.845   1.233  1.00  0.00     0.020 C 
BRANCH  12  13
HETATM   13  C4  UNL     1       3.713   2.116   0.052  1.00  0.00     0.002 C 
BRANCH  13  14
HETATM   14  C3  UNL     1       2.364   1.549   0.342  1.00  0.00    -0.000 C 
BRANCH  14  15
HETATM   15  C2  UNL     1       1.605   1.230  -0.939  1.00  0.00    -0.005 C 
HETATM   16  C1  UNL     1       2.569   1.426  -2.091  1.00  0.00     0.005 C 
ENDBRANCH  14  15
ENDBRANCH  13  14
ENDBRANCH  12  13
ENDBRANCH  11  12
ENDBRANCH   8  11
ENDBRANCH   1   7
BRANCH   6  17
HETATM   17  O5  UNL     1       7.428   6.436   2.916  1.00  0.00    -0.357 OA
ATOM     18  H5  UNL     1       8.282   6.039   2.796  1.00  0.00     0.218 HD
ENDBRANCH   6  17
BRANCH   4  19
HETATM   19  O2  UNL     1       6.892  10.672   0.684  1.00  0.00    -0.345 OA
ATOM     20  H2  UNL     1       7.669  10.917   0.195  1.00  0.00     0.219 HD
ENDBRANCH   4  19
BRANCH   5  21
HETATM   21  S1  UNL     1       9.221   9.001   2.310  1.00  0.00     0.250 S 
HETATM   22  O3  UNL     1      10.108   8.301   1.290  1.00  0.00    -0.205 OA
HETATM   23  O4  UNL     1       9.614   8.477   3.646  1.00  0.00    -0.205 OA
BRANCH  21  24
HETATM   24  N3  UNL     1       9.549  10.688   2.182  1.00  0.00    -0.206 NA
HETATM   25  C11 UNL     1      10.953  10.864   1.886  1.00  0.00     0.107 C 
HETATM   26  C12 UNL     1      11.174  12.297   1.454  1.00  0.00     0.015 C 
HETATM   27  C13 UNL     1       9.963  13.129   1.808  1.00  0.00     0.002 C 
HETATM   28  C14 UNL     1       9.589  12.827   3.242  1.00  0.00     0.015 C 
HETATM   29  C15 UNL     1       9.180  11.386   3.382  1.00  0.00     0.107 C 
ENDBRANCH  21  24
ENDBRANCH   5  21
TORSDOF 10
ENDMDL
MODEL 2
REMARK VINA RESULT: -7.153605806      1.153      1.435
REMARK  10 active torsions:
REMARK  status: ('A' for Active; 'I' for Inactive)
REMARK    1  A    between atoms: C2_2  and  C3_3 
REMARK    2  A    between atoms: C3_3  and  C4_4 
REMARK    3  A    between atoms: C4_4  and  C5_5 
REMARK    4  A    between atoms: C5_5  and  C6_6 
REMARK    5  A    between atoms: C6_6  and  N1_7 
REMARK       I    between atoms: N1_7  and  C7_9 
REMARK    6  A    between atoms: C7_9  and  C8_11 
REMARK    7  A    between atoms: C9_14  and  O2_15 
REMARK    8  A    between atoms: C10_17  and  S1_18 
REMARK    9  A    between atoms: S1_18  and  N3_21 
REMARK   10  A    between atoms: C16_27  and  O5_28 
ROOT
HETATM    1  C8  UNL     1       5.666   6.773   1.887  1.00  0.00     0.138 A 
HETATM    2  N2  UNL     1       5.305   7.953   1.364  1.00  0.00    -0.329 N 
ATOM      3  H2  UNL     1       4.432   8.129   0.867  1.00  0.00     0.168 HD
HETATM    4  C9  UNL     1       6.261   8.875   1.590  1.00  0.00     0.167 A 
HETATM    5  C10 UNL     1       7.295   8.288   2.287  1.00  0.00     0.160 A 
HETATM    6  C16 UNL     1       6.894   6.955   2.463  1.00  0.00     0.125 A 
ENDROOT
BRANCH   1   7
HETATM    7  C7  UNL     1       4.881   5.520   1.842  1.00  0.00     0.271 C 
HETATM    8  N1  UNL     1       5.544   4.294   1.706  1.00  0.00    -0.356 N 
ATOM      9  H1  UNL     1       6.562   4.298   1.636  1.00  0.00     0.162 HD
HETATM   10  O1  UNL     1       3.631   5.548   1.922  1.00  0.00    -0.266 OA
BRANCH   8  11
HETATM   11  C6  UNL     1       4.861   3.028   1.659  1.00  0.00     0.123 C 
BRANCH  11  12
HETATM   12  C5  UNL     1       4.142   2.799   0.355  1.00  0.00     0.020 C 
BRANCH  12  13
HETATM   13  C4  UNL     1       2.720   2.368   0.616  1.00  0.00     0.002 C 
BRANCH  13  14
HETATM   14  C3  UNL     1       2.355   1.118  -0.112  1.00  0.00    -0.000 C 
BRANCH  14  15
HETATM   15  C2  UNL     1       1.562   1.420  -1.377  1.00  0.00    -0.005 C 
HETATM   16  C1  UNL     1       2.536   1.380  -2.536  1.00  0.00     0.005 C 
ENDBRANCH  14  15
ENDBRANCH  13  14
ENDBRANCH  12  13
ENDBRANCH  11  12
ENDBRANCH   8  11
ENDBRANCH   1   7
BRANCH   6  17
HETATM   17  O5  UNL     1       7.677   6.053   3.122  1.00  0.00    -0.357 OA
ATOM     18  H5  UNL     1       8.242   6.186   3.873  1.00  0.00     0.218 HD
ENDBRANCH   6  17
BRANCH   4  19
HETATM   19  O2  UNL     1       6.196  10.204   1.177  1.00  0.00    -0.345 OA
ATOM     20  H2  UNL     1       6.778  10.893   1.476  1.00  0.00     0.219 HD
ENDBRANCH   4  19
BRANCH   5  21
HETATM   21  S1  UNL     1       8.786   9.027   2.840  1.00  0.00     0.250 S 
HETATM   22  O3  UNL     1       9.836   7.929   2.923  1.00  0.00    -0.205 OA
HETATM   23  O4  UNL     1       8.665   9.605   4.205  1.00  0.00    -0.205 OA
BRANCH  21  24
HETATM   24  N3  UNL     1       9.376  10.197   1.720  1.00  0.00    -0.206 NA
HETATM   25  C11 UNL     1       9.599   9.546   0.447  1.00  0.00     0.107 C 
HETATM   26  C12 UNL     1       9.796  10.614  -0.606  1.00  0.00     0.015 C 
HETATM   27  C13 UNL     1      10.044  11.948   0.059  1.00  0.00     0.002 C 
HETATM   28  C14 UNL     1      11.090  11.751   1.133  1.00  0.00     0.015 C 
HETATM   29  C15 UNL     1      10.575  10.824   2.199  1.00  0.00     0.107 C 
ENDBRANCH  21  24
ENDBRANCH   5  21
TORSDOF 10
ENDMDL
MODEL 3
REMARK VINA RESULT: -6.989820053      0.936      1.170
REMARK  10 active torsions:
REMARK  status: ('A' for Active; 'I' for Inactive)
REMARK    1  A    between atoms: C2_2  and  C3_3 
REMARK    2  A    between atoms: C3_3  and  C4_4 
REMARK    3  A    between atoms: C4_4  and  C5_5 
REMARK    4  A    between atoms: C5_5  and  C6_6 
REMARK    5  A    between atoms: C6_6  and  N1_7 
REMARK       I    between atoms: N1_7  and  C7_9 
REMARK    6  A    between atoms: C7_9  and  C8_11 
REMARK    7  A    between atoms: C9_14  and  O2_15 
REMARK    8  A    between atoms: C10_17  and  S1_18 
REMARK    9  A    between atoms: S1_18  and  N3_21 
REMARK   10  A    between atoms: C16_27  and  O5_28 
ROOT
HETATM    1  C8  UNL     1       5.485   7.886   1.750  1.00  0.00     0.138 A 
HETATM    2  N2  UNL     1       5.303   9.113   1.240  1.00  0.00    -0.329 N 
ATOM      3  H2  UNL     1       4.418   9.470   0.881  1.00  0.00     0.168 HD
HETATM    4  C9  UNL     1       6.459   9.805   1.270  1.00  0.00     0.167 A 
HETATM    5  C10 UNL     1       7.444   9.012   1.818  1.00  0.00     0.160 A 
HETATM    6  C16 UNL     1       6.801   7.800   2.114  1.00  0.00     0.125 A 
ENDROOT
BRANCH   1   7
HETATM    7  C7  UNL     1       4.453   6.834   1.885  1.00  0.00     0.271 C 
HETATM    8  N1  UNL     1       4.684   5.566   1.339  1.00  0.00    -0.356 N 
ATOM      9  H1  UNL     1       5.566   5.400   0.853  1.00  0.00     0.162 HD
HETATM   10  O1  UNL     1       3.377   7.070   2.482  1.00  0.00    -0.266 OA
BRANCH   8  11
HETATM   11  C6  UNL     1       3.740   4.483   1.428  1.00  0.00     0.123 C 
BRANCH  11  12
HETATM   12  C5  UNL     1       4.395   3.129   1.369  1.00  0.00     0.020 C 
BRANCH  12  13
HETATM   13  C4  UNL     1       3.830   2.330   0.221  1.00  0.00     0.002 C 
BRANCH  13  14
HETATM   14  C3  UNL     1       2.496   1.738   0.533  1.00  0.00    -0.000 C 
BRANCH  14  15
HETATM   15  C2  UNL     1       1.793   1.251  -0.727  1.00  0.00    -0.005 C 
HETATM   16  C1  UNL     1       2.772   1.401  -1.873  1.00  0.00     0.005 C 
ENDBRANCH  14  15
ENDBRANCH  13  14
ENDBRANCH  12  13
ENDBRANCH  11  12
ENDBRANCH   8  11
ENDBRANCH   1   7
BRANCH   6  17
HETATM   17  O5  UNL     1       7.471   6.754   2.678  1.00  0.00    -0.357 OA
ATOM     18  H5  UNL     1       8.287   6.351   2.409  1.00  0.00     0.218 HD
ENDBRANCH   6  17
BRANCH   4  19
HETATM   19  O2  UNL     1       6.612  11.114   0.815  1.00  0.00    -0.345 OA
ATOM     20  H2  UNL     1       7.016  11.356  -0.010  1.00  0.00     0.219 HD
ENDBRANCH   4  19
BRANCH   5  21
HETATM   21  S1  UNL     1       9.128   9.413   2.093  1.00  0.00     0.250 S 
HETATM   22  O3  UNL     1       9.965   8.268   1.539  1.00  0.00    -0.205 OA
HETATM   23  O4  UNL     1       9.461   9.523   3.538  1.00  0.00    -0.205 OA
BRANCH  21  24
HETATM   24  N3  UNL     1       9.598  10.833   1.236  1.00  0.00    -0.206 NA
HETATM   25  C11 UNL     1       9.793  10.490  -0.155  1.00  0.00     0.107 C 
HETATM   26  C12 UNL     1       9.880  11.771  -0.955  1.00  0.00     0.015 C 
HETATM   27  C13 UNL     1      10.088  12.941  -0.022  1.00  0.00     0.002 C 
HETATM   28  C14 UNL     1      11.196  12.582   0.943  1.00  0.00     0.015 C 
HETATM   29  C15 UNL     1      10.784  11.415   1.798  1.00  0.00     0.107 C 
ENDBRANCH  21  24
ENDBRANCH   5  21
TORSDOF 10
ENDMDL
MODEL 4
REMARK VINA RESULT: -6.613111483      1.561      2.307
REMARK  10 active torsions:
REMARK  status: ('A' for Active; 'I' for Inactive)
REMARK    1  A    between atoms: C2_2  and  C3_3 
REMARK    2  A    between atoms: C3_3  and  C4_4 
REMARK    3  A    between atoms: C4_4  and  C5_5 
REMARK    4  A    between atoms: C5_5  and  C6_6 
REMARK    5  A    between atoms: C6_6  and  N1_7 
REMARK       I    between atoms: N1_7  and  C7_9 
REMARK    6  A    between atoms: C7_9  and  C8_11 
REMARK    7  A    between atoms: C9_14  and  O2_15 
REMARK    8  A    between atoms: C10_17  and  S1_18 
REMARK    9  A    between atoms: S1_18  and  N3_21 
REMARK   10  A    between atoms: C16_27  and  O5_28 
ROOT
HETATM    1  C8  UNL     1       6.286   7.568   2.024  1.00  0.00     0.138 A 
HETATM    2  N2  UNL     1       7.341   6.862   2.455  1.00  0.00    -0.329 N 
ATOM      3  H2  UNL     1       7.388   5.844   2.489  1.00  0.00     0.168 HD
HETATM    4  C9  UNL     1       8.332   7.692   2.836  1.00  0.00     0.167 A 
HETATM    5  C10 UNL     1       7.922   8.995   2.653  1.00  0.00     0.160 A 
HETATM    6  C16 UNL     1       6.621   8.889   2.138  1.00  0.00     0.125 A 
ENDROOT
BRANCH   1   7
HETATM    7  C7  UNL     1       5.008   7.013   1.526  1.00  0.00     0.271 C 
HETATM    8  N1  UNL     1       4.817   5.625   1.511  1.00  0.00    -0.356 N 
ATOM      9  H1  UNL     1       5.574   5.028   1.845  1.00  0.00     0.162 HD
HETATM   10  O1  UNL     1       4.099   7.771   1.116  1.00  0.00    -0.266 OA
BRANCH   8  11
HETATM   11  C6  UNL     1       3.606   4.999   1.049  1.00  0.00     0.123 C 
BRANCH  11  12
HETATM   12  C5  UNL     1       3.487   3.563   1.486  1.00  0.00     0.020 C 
BRANCH  12  13
HETATM   13  C4  UNL     1       4.435   2.700   0.692  1.00  0.00     0.002 C 
BRANCH  13  14
HETATM   14  C3  UNL     1       3.727   1.712  -0.174  1.00  0.00    -0.000 C 
BRANCH  14  15
HETATM   15  C2  UNL     1       2.282   1.521   0.266  1.00  0.00    -0.005 C 
HETATM   16  C1  UNL     1       1.476   1.193  -0.974  1.00  0.00     0.005 C 
ENDBRANCH  14  15
ENDBRANCH  13  14
ENDBRANCH  12  13
ENDBRANCH  11  12
ENDBRANCH   8  11
ENDBRANCH   1   7
BRANCH   6  17
HETATM   17  O5  UNL     1       5.883   9.994   1.827  1.00  0.00    -0.357 OA
ATOM     18  H5  UNL     1       5.365  10.168   1.051  1.00  0.00     0.218 HD
ENDBRANCH   6  17
BRANCH   4  19
HETATM   19  O2  UNL     1       9.566   7.278   3.333  1.00  0.00    -0.345 OA
ATOM     20  H2  UNL     1      10.407   7.506   2.952  1.00  0.00     0.219 HD
ENDBRANCH   4  19
BRANCH   5  21
HETATM   21  S1  UNL     1       8.814  10.467   2.985  1.00  0.00     0.250 S 
HETATM   22  O3  UNL     1      10.080  10.075   3.733  1.00  0.00    -0.205 OA
HETATM   23  O4  UNL     1       8.067  11.399   3.872  1.00  0.00    -0.205 OA
BRANCH  21  24
HETATM   24  N3  UNL     1       9.315  11.255   1.536  1.00  0.00    -0.206 NA
HETATM   25  C11 UNL     1       9.669  10.247   0.562  1.00  0.00     0.107 C 
HETATM   26  C12 UNL     1       9.789  10.912  -0.791  1.00  0.00     0.015 C 
HETATM   27  C13 UNL     1       9.850  12.412  -0.618  1.00  0.00     0.002 C 
HETATM   28  C14 UNL     1      10.863  12.720   0.462  1.00  0.00     0.015 C 
HETATM   29  C15 UNL     1      10.410  12.151   1.778  1.00  0.00     0.107 C 
ENDBRANCH  21  24
ENDBRANCH   5  21
TORSDOF 10
ENDMDL
MODEL 5
REMARK VINA RESULT: -6.580510662      3.501      9.958
REMARK  10 active torsions:
REMARK  status: ('A' for Active; 'I' for Inactive)
REMARK    1  A    between atoms: C2_2  and  C3_3 
REMARK    2  A    between atoms: C3_3  and  C4_4 
REMARK    3  A    between atoms: C4_4  and  C5_5 
REMARK    4  A    between atoms: C5_5  and  C6_6 
REMARK    5  A    between atoms: C6_6  and  N1_7 
REMARK       I    between atoms: N1_7  and  C7_9 
REMARK    6  A    between atoms: C7_9  and  C8_11 
REMARK    7  A    between atoms: C9_14  and  O2_15 
REMARK    8  A    between atoms: C10_17  and  S1_18 
REMARK    9  A    between atoms: S1_18  and  N3_21 
REMARK   10  A    between atoms: C16_27  and  O5_28 
ROOT
HETATM    1  C8  UNL     1      10.713  11.403   0.958  1.00  0.00     0.138 A 
HETATM    2  N2  UNL     1      10.764  10.375   0.100  1.00  0.00    -0.329 N 
ATOM      3  H2  UNL     1      11.220  10.399  -0.813  1.00  0.00     0.168 HD
HETATM    4  C9  UNL     1      10.126   9.306   0.615  1.00  0.00     0.167 A 
HETATM    5  C10 UNL     1       9.633   9.634   1.859  1.00  0.00     0.160 A 
HETATM    6  C16 UNL     1      10.018  10.969   2.054  1.00  0.00     0.125 A 
ENDROOT
BRANCH   1   7
HETATM    7  C7  UNL     1      11.299  12.746   0.750  1.00  0.00     0.271 C 
HETATM    8  N1  UNL     1      12.062  13.332   1.767  1.00  0.00    -0.356 N 
ATOM      9  H1  UNL     1      12.192  12.813   2.636  1.00  0.00     0.162 HD
HETATM   10  O1  UNL     1      11.116  13.362  -0.326  1.00  0.00    -0.266 OA
BRANCH   8  11
HETATM   11  C6  UNL     1      12.673  14.630   1.648  1.00  0.00     0.123 C 
BRANCH  11  12
HETATM   12  C5  UNL     1      13.216  15.143   2.956  1.00  0.00     0.020 C 
BRANCH  12  13
HETATM   13  C4  UNL     1      12.083  15.549   3.864  1.00  0.00     0.002 C 
BRANCH  13  14
HETATM   14  C3  UNL     1      12.558  16.167   5.137  1.00  0.00    -0.000 C 
BRANCH  14  15
HETATM   15  C2  UNL     1      12.122  15.353   6.348  1.00  0.00    -0.005 C 
HETATM   16  C1  UNL     1      13.369  15.034   7.146  1.00  0.00     0.005 C 
ENDBRANCH  14  15
ENDBRANCH  13  14
ENDBRANCH  12  13
ENDBRANCH  11  12
ENDBRANCH   8  11
ENDBRANCH   1   7
BRANCH   6  17
HETATM   17  O5  UNL     1       9.701  11.646   3.195  1.00  0.00    -0.357 OA
ATOM     18  H5  UNL     1       8.846  11.829   3.565  1.00  0.00     0.218 HD
ENDBRANCH   6  17
BRANCH   4  19
HETATM   19  O2  UNL     1       9.997   8.075  -0.025  1.00  0.00    -0.345 OA
ATOM     20  H2  UNL     1      10.206   7.915  -0.938  1.00  0.00     0.219 HD
ENDBRANCH   4  19
BRANCH   5  21
HETATM   21  S1  UNL     1       8.725   8.621   2.965  1.00  0.00     0.250 S 
HETATM   22  O3  UNL     1       8.714   9.319   4.318  1.00  0.00    -0.205 OA
HETATM   23  O4  UNL     1       9.361   7.293   3.176  1.00  0.00    -0.205 OA
BRANCH  21  24
HETATM   24  N3  UNL     1       7.080   8.453   2.478  1.00  0.00    -0.206 NA
HETATM   25  C11 UNL     1       6.878   7.106   1.990  1.00  0.00     0.107 C 
HETATM   26  C12 UNL     1       5.391   6.858   1.874  1.00  0.00     0.015 C 
HETATM   27  C13 UNL     1       4.647   8.170   1.960  1.00  0.00     0.002 C 
HETATM   28  C14 UNL     1       5.319   9.153   1.027  1.00  0.00     0.015 C 
HETATM   29  C15 UNL     1       6.726   9.424   1.481  1.00  0.00     0.107 C 
ENDBRANCH  21  24
ENDBRANCH   5  21
TORSDOF 10
ENDMDL
