MODEL 1
REMARK VINA RESULT: -7.024708522      0.000      0.000
REMARK  9 active torsions:
REMARK  status: ('A' for Active; 'I' for Inactive)
REMARK    1  A    between atoms: C2_2  and  C3_3 
REMARK    2  A    between atoms: C7_7  and  C8_8 
REMARK    3  A    between atoms: C10_10  and  C11_11 
REMARK    4  A    between atoms: C11_11  and  O1_12 
REMARK    5  A    between atoms: C11_11  and  C12_14 
REMARK    6  A    between atoms: C12_14  and  O2_16 
REMARK    7  A    between atoms: C12_14  and  C14_18 
REMARK    8  A    between atoms: N1_23  and  O3_25 
REMARK    9  A    between atoms: C23_31  and  O4_32 
ROOT
HETATM    1  C12 UNL     1       9.359  11.618  -0.379  1.00  0.00     0.086 C 
HETATM    2  C13 UNL     1       8.234  12.583  -0.442  1.00  0.00     0.049 C 
ENDROOT
BRANCH   1   3
HETATM    3  C11 UNL     1      10.614  12.184   0.250  1.00  0.00     0.158 C 
BRANCH   3   4
HETATM    4  C10 UNL     1      10.598  13.581   0.695  1.00  0.00     0.033 C 
HETATM    5  C3  UNL     1      11.397  14.655   0.148  1.00  0.00    -0.021 C 
HETATM    6  C4  UNL     1      12.733  14.455  -0.440  1.00  0.00     0.020 C 
HETATM    7  C5  UNL     1      11.657  15.645   1.332  1.00  0.00     0.014 C 
HETATM    8  C6  UNL     1      11.789  14.715   2.511  1.00  0.00     0.006 C 
HETATM    9  C7  UNL     1      10.691  13.707   2.225  1.00  0.00    -0.007 C 
BRANCH   5  10
HETATM   10  C2  UNL     1      10.602  15.491  -0.804  1.00  0.00    -0.027 C 
HETATM   11  C1  UNL     1      10.357  15.188  -2.041  1.00  0.00     0.007 C 
ENDBRANCH   5  10
BRANCH   9  12
HETATM   12  C8  UNL     1       9.385  14.147   2.850  1.00  0.00     0.000 C 
HETATM   13  C9  UNL     1       9.016  13.285   4.035  1.00  0.00     0.005 C 
ENDBRANCH   9  12
ENDBRANCH   3   4
BRANCH   3  14
HETATM   14  O1  UNL     1      10.882  11.404   1.439  1.00  0.00    -0.392 OA
ATOM     15  H1  UNL     1      11.745  11.028   1.304  1.00  0.00     0.210 HD
ENDBRANCH   3  14
ENDBRANCH   1   3
BRANCH   1  16
HETATM   16  O2  UNL     1       9.658  11.267  -1.696  1.00  0.00    -0.387 OA
ATOM     17  H2  UNL     1       8.934  10.753  -2.034  1.00  0.00     0.210 HD
ENDBRANCH   1  16
BRANCH   1  18
HETATM   18  C14 UNL     1       8.955  10.316   0.348  1.00  0.00     0.051 C 
HETATM   19  C15 UNL     1       8.326  10.592   1.654  1.00  0.00     0.016 C 
HETATM   20  C16 UNL     1       7.385   9.512   2.132  1.00  0.00     0.000 C 
HETATM   21  C17 UNL     1       7.999   8.241   2.534  1.00  0.00     0.065 C 
HETATM   22  C21 UNL     1       6.352   9.246   1.104  1.00  0.00     0.027 C 
HETATM   23  C18 UNL     1       6.969   7.234   2.119  1.00  0.00     0.038 C 
HETATM   24  N1  UNL     1       7.093   5.959   2.222  1.00  0.00    -0.273 N 
HETATM   25  C19 UNL     1       5.805   7.927   1.579  1.00  0.00    -0.038 C 
ATOM     26  H1  UNL     1       7.953   5.581   2.617  1.00  0.00     0.194 HD
HETATM   27  C20 UNL     1       4.556   7.544   1.499  1.00  0.00     0.021 C 
HETATM   28  C22 UNL     1       6.818   9.147  -0.306  1.00  0.00     0.042 C 
HETATM   29  C23 UNL     1       8.308   9.296  -0.482  1.00  0.00     0.126 C 
BRANCH  24  30
HETATM   30  O3  UNL     1       6.115   5.093   1.824  1.00  0.00    -0.290 OA
ATOM     31  H3  UNL     1       5.638   4.545   2.436  1.00  0.00     0.244 HD
ENDBRANCH  24  30
BRANCH  29  32
HETATM   32  O4  UNL     1       8.526   9.346  -1.849  1.00  0.00    -0.395 OA
ATOM     33  H4  UNL     1       8.948   8.598  -2.256  1.00  0.00     0.210 HD
ENDBRANCH  29  32
ENDBRANCH   1  18
TORSDOF 9
ENDMDL
MODEL 2
REMARK VINA RESULT: -6.769592315      1.036      2.444
REMARK  9 active torsions:
REMARK  status: ('A' for Active; 'I' for Inactive)
REMARK    1  A    between atoms: C2_2  and  C3_3 
REMARK    2  A    between atoms: C7_7  and  C8_8 
REMARK    3  A    between atoms: C10_10  and  C11_11 
REMARK    4  A    between atoms: C11_11  and  O1_12 
REMARK    5  A    between atoms: C11_11  and  C12_14 
REMARK    6  A    between atoms: C12_14  and  O2_16 
REMARK    7  A    between atoms: C12_14  and  C14_18 
REMARK    8  A    between atoms: N1_23  and  O3_25 
REMARK    9  A    between atoms: C23_31  and  O4_32 
ROOT
HETATM    1  C12 UNL     1       9.608  11.379  -0.277  1.00  0.00     0.086 C 
HETATM    2  C13 UNL     1       9.407  11.373  -1.747  1.00  0.00     0.049 C 
ENDROOT
BRANCH   1   3
HETATM    3  C11 UNL     1       8.998  12.578   0.417  1.00  0.00     0.158 C 
BRANCH   3   4
HETATM    4  C10 UNL     1       9.802  13.799   0.527  1.00  0.00     0.033 C 
HETATM    5  C3  UNL     1      10.370  14.334   1.746  1.00  0.00    -0.021 C 
HETATM    6  C4  UNL     1       9.757  14.155   3.074  1.00  0.00     0.020 C 
HETATM    7  C5  UNL     1      10.408  15.887   1.559  1.00  0.00     0.014 C 
HETATM    8  C6  UNL     1       9.153  16.149   0.766  1.00  0.00     0.006 C 
HETATM    9  C7  UNL     1       9.163  14.988  -0.210  1.00  0.00    -0.007 C 
BRANCH   5  10
HETATM   10  C2  UNL     1      11.820  13.987   1.864  1.00  0.00    -0.027 C 
HETATM   11  C1  UNL     1      12.804  14.819   1.718  1.00  0.00     0.007 C 
ENDBRANCH   5  10
BRANCH   9  12
HETATM   12  C8  UNL     1       9.914  15.356  -1.472  1.00  0.00     0.000 C 
HETATM   13  C9  UNL     1      11.115  14.465  -1.686  1.00  0.00     0.005 C 
ENDBRANCH   9  12
ENDBRANCH   3   4
BRANCH   3  14
HETATM   14  O1  UNL     1       7.825  12.957  -0.341  1.00  0.00    -0.392 OA
ATOM     15  H1  UNL     1       8.156  13.298  -1.165  1.00  0.00     0.210 HD
ENDBRANCH   3  14
ENDBRANCH   1   3
BRANCH   1  16
HETATM   16  O2  UNL     1      10.986  11.413  -0.062  1.00  0.00    -0.387 OA
ATOM     17  H2  UNL     1      11.243  10.581   0.319  1.00  0.00     0.210 HD
ENDBRANCH   1  16
BRANCH   1  18
HETATM   18  C14 UNL     1       9.086  10.081   0.377  1.00  0.00     0.051 C 
HETATM   19  C15 UNL     1       8.599  10.317   1.749  1.00  0.00     0.016 C 
HETATM   20  C16 UNL     1       7.557   9.329   2.219  1.00  0.00     0.000 C 
HETATM   21  C17 UNL     1       8.021   7.959   2.465  1.00  0.00     0.065 C 
HETATM   22  C21 UNL     1       6.425   9.292   1.265  1.00  0.00     0.027 C 
HETATM   23  C18 UNL     1       6.836   7.134   2.061  1.00  0.00     0.038 C 
HETATM   24  N1  UNL     1       6.792   5.850   2.052  1.00  0.00    -0.273 N 
HETATM   25  C19 UNL     1       5.740   8.017   1.679  1.00  0.00    -0.038 C 
ATOM     26  H1  UNL     1       7.620   5.329   2.340  1.00  0.00     0.194 HD
HETATM   27  C20 UNL     1       4.448   7.808   1.676  1.00  0.00     0.021 C 
HETATM   28  C22 UNL     1       6.767   9.261  -0.183  1.00  0.00     0.042 C 
HETATM   29  C23 UNL     1       8.246   9.231  -0.473  1.00  0.00     0.126 C 
BRANCH  24  30
HETATM   30  O3  UNL     1       5.678   5.157   1.671  1.00  0.00    -0.290 OA
ATOM     31  H3  UNL     1       5.716   4.422   1.070  1.00  0.00     0.244 HD
ENDBRANCH  24  30
BRANCH  29  32
HETATM   32  O4  UNL     1       8.367   9.375  -1.846  1.00  0.00    -0.395 OA
ATOM     33  H4  UNL     1       8.537  10.247  -2.184  1.00  0.00     0.210 HD
ENDBRANCH  29  32
ENDBRANCH   1  18
TORSDOF 9
ENDMDL
MODEL 3
REMARK VINA RESULT: -6.768720989      1.990      3.469
REMARK  9 active torsions:
REMARK  status: ('A' for Active; 'I' for Inactive)
REMARK    1  A    between atoms: C2_2  and  C3_3 
REMARK    2  A    between atoms: C7_7  and  C8_8 
REMARK    3  A    between atoms: C10_10  and  C11_11 
REMARK    4  A    between atoms: C11_11  and  O1_12 
REMARK    5  A    between atoms: C11_11  and  C12_14 
REMARK    6  A    between atoms: C12_14  and  O2_16 
REMARK    7  A    between atoms: C12_14  and  C14_18 
REMARK    8  A    between atoms: N1_23  and  O3_25 
REMARK    9  A    between atoms: C23_31  and  O4_32 
ROOT
HETATM    1  C12 UNL     1       9.753  10.354   1.475  1.00  0.00     0.086 C 
HETATM    2  C13 UNL     1      10.356   9.183   0.793  1.00  0.00     0.049 C 
ENDROOT
BRANCH   1   3
HETATM    3  C11 UNL     1      10.048  11.674   0.796  1.00  0.00     0.158 C 
BRANCH   3   4
HETATM    4  C10 UNL     1      10.028  12.893   1.611  1.00  0.00     0.033 C 
HETATM    5  C3  UNL     1       8.850  13.650   1.976  1.00  0.00    -0.021 C 
HETATM    6  C4  UNL     1       7.643  13.729   1.136  1.00  0.00     0.020 C 
HETATM    7  C5  UNL     1       9.316  15.139   2.100  1.00  0.00     0.014 C 
HETATM    8  C6  UNL     1      10.354  15.245   1.012  1.00  0.00     0.006 C 
HETATM    9  C7  UNL     1      11.077  13.919   1.152  1.00  0.00    -0.007 C 
BRANCH   5  10
HETATM   10  C2  UNL     1       8.413  13.331   3.371  1.00  0.00    -0.027 C 
HETATM   11  C1  UNL     1       9.190  13.288   4.408  1.00  0.00     0.007 C 
ENDBRANCH   5  10
BRANCH   9  12
HETATM   12  C8  UNL     1      12.232  14.039   2.124  1.00  0.00     0.000 C 
HETATM   13  C9  UNL     1      13.214  15.103   1.694  1.00  0.00     0.005 C 
ENDBRANCH   9  12
ENDBRANCH   3   4
BRANCH   3  14
HETATM   14  O1  UNL     1      11.391  11.589   0.265  1.00  0.00    -0.392 OA
ATOM     15  H1  UNL     1      11.790  10.846   0.705  1.00  0.00     0.210 HD
ENDBRANCH   3  14
ENDBRANCH   1   3
BRANCH   1  16
HETATM   16  O2  UNL     1      10.304  10.396   2.756  1.00  0.00    -0.387 OA
ATOM     17  H2  UNL     1      11.154  10.817   2.696  1.00  0.00     0.210 HD
ENDBRANCH   1  16
BRANCH   1  18
HETATM   18  C14 UNL     1       8.227  10.190   1.651  1.00  0.00     0.051 C 
HETATM   19  C15 UNL     1       7.532  10.116   0.353  1.00  0.00     0.016 C 
HETATM   20  C16 UNL     1       6.218   9.372   0.392  1.00  0.00     0.000 C 
HETATM   21  C17 UNL     1       5.117  10.028   1.106  1.00  0.00     0.065 C 
HETATM   22  C21 UNL     1       6.418   8.016   0.952  1.00  0.00     0.027 C 
HETATM   23  C18 UNL     1       4.376   8.869   1.702  1.00  0.00     0.038 C 
HETATM   24  N1  UNL     1       3.352   8.959   2.472  1.00  0.00    -0.273 N 
HETATM   25  C19 UNL     1       5.000   7.624   1.272  1.00  0.00    -0.038 C 
ATOM     26  H1  UNL     1       2.996   9.884   2.709  1.00  0.00     0.194 HD
HETATM   27  C20 UNL     1       4.499   6.419   1.166  1.00  0.00     0.021 C 
HETATM   28  C22 UNL     1       7.280   7.909   2.160  1.00  0.00     0.042 C 
HETATM   29  C23 UNL     1       7.802   9.228   2.672  1.00  0.00     0.126 C 
BRANCH  24  30
HETATM   30  O3  UNL     1       2.720   7.861   2.984  1.00  0.00    -0.290 OA
ATOM     31  H3  UNL     1       2.350   7.847   3.859  1.00  0.00     0.244 HD
ENDBRANCH  24  30
BRANCH  29  32
HETATM   32  O4  UNL     1       8.704   8.915   3.677  1.00  0.00    -0.395 OA
ATOM     33  H4  UNL     1       9.424   9.516   3.825  1.00  0.00     0.210 HD
ENDBRANCH  29  32
ENDBRANCH   1  18
TORSDOF 9
ENDMDL
MODEL 4
REMARK VINA RESULT: -6.654340228      2.174      3.032
REMARK  9 active torsions:
REMARK  status: ('A' for Active; 'I' for Inactive)
REMARK    1  A    between atoms: C2_2  and  C3_3 
REMARK    2  A    between atoms: C7_7  and  C8_8 
REMARK    3  A    between atoms: C10_10  and  C11_11 
REMARK    4  A    between atoms: C11_11  and  O1_12 
REMARK    5  A    between atoms: C11_11  and  C12_14 
REMARK    6  A    between atoms: C12_14  and  O2_16 
REMARK    7  A    between atoms: C12_14  and  C14_18 
REMARK    8  A    between atoms: N1_23  and  O3_25 
REMARK    9  A    between atoms: C23_31  and  O4_32 
ROOT
HETATM    1  C12 UNL     1       9.793  10.273   1.460  1.00  0.00     0.086 C 
HETATM    2  C13 UNL     1      10.331   9.238   0.545  1.00  0.00     0.049 C 
ENDROOT
BRANCH   1   3
HETATM    3  C11 UNL     1      10.131  11.689   1.045  1.00  0.00     0.158 C 
BRANCH   3   4
HETATM    4  C10 UNL     1       9.361  12.788   1.637  1.00  0.00     0.033 C 
HETATM    5  C3  UNL     1       8.866  13.952   0.934  1.00  0.00    -0.021 C 
HETATM    6  C4  UNL     1       9.539  14.541  -0.237  1.00  0.00     0.020 C 
HETATM    7  C5  UNL     1       8.855  15.115   1.981  1.00  0.00     0.014 C 
HETATM    8  C6  UNL     1      10.075  14.814   2.814  1.00  0.00     0.006 C 
HETATM    9  C7  UNL     1       9.990  13.305   2.942  1.00  0.00    -0.007 C 
BRANCH   5  10
HETATM   10  C2  UNL     1       7.416  13.805   0.598  1.00  0.00    -0.027 C 
HETATM   11  C1  UNL     1       6.472  13.547   1.450  1.00  0.00     0.007 C 
ENDBRANCH   5  10
BRANCH   9  12
HETATM   12  C8  UNL     1       9.186  12.916   4.164  1.00  0.00     0.000 C 
HETATM   13  C9  UNL     1       9.517  13.792   5.350  1.00  0.00     0.005 C 
ENDBRANCH   9  12
ENDBRANCH   3   4
BRANCH   3  14
HETATM   14  O1  UNL     1      11.504  11.930   1.432  1.00  0.00    -0.392 OA
ATOM     15  H1  UNL     1      11.498  12.771   1.873  1.00  0.00     0.210 HD
ENDBRANCH   3  14
ENDBRANCH   1   3
BRANCH   1  16
HETATM   16  O2  UNL     1      10.370  10.042   2.709  1.00  0.00    -0.387 OA
ATOM     17  H2  UNL     1      11.310  10.150   2.622  1.00  0.00     0.210 HD
ENDBRANCH   1  16
BRANCH   1  18
HETATM   18  C14 UNL     1       8.265  10.137   1.643  1.00  0.00     0.051 C 
HETATM   19  C15 UNL     1       7.561  10.088   0.348  1.00  0.00     0.016 C 
HETATM   20  C16 UNL     1       6.233   9.368   0.388  1.00  0.00     0.000 C 
HETATM   21  C17 UNL     1       5.149  10.039   1.114  1.00  0.00     0.065 C 
HETATM   22  C21 UNL     1       6.411   8.004   0.935  1.00  0.00     0.027 C 
HETATM   23  C18 UNL     1       4.390   8.889   1.704  1.00  0.00     0.038 C 
HETATM   24  N1  UNL     1       3.371   8.991   2.480  1.00  0.00    -0.273 N 
HETATM   25  C19 UNL     1       4.988   7.636   1.259  1.00  0.00    -0.038 C 
ATOM     26  H1  UNL     1       3.035   9.921   2.728  1.00  0.00     0.194 HD
HETATM   27  C20 UNL     1       4.463   6.441   1.146  1.00  0.00     0.021 C 
HETATM   28  C22 UNL     1       7.277   7.870   2.138  1.00  0.00     0.042 C 
HETATM   29  C23 UNL     1       7.827   9.174   2.658  1.00  0.00     0.126 C 
BRANCH  24  30
HETATM   30  O3  UNL     1       2.722   7.901   2.986  1.00  0.00    -0.290 OA
ATOM     31  H3  UNL     1       2.682   7.718   3.917  1.00  0.00     0.244 HD
ENDBRANCH  24  30
BRANCH  29  32
HETATM   32  O4  UNL     1       8.728   8.835   3.655  1.00  0.00    -0.395 OA
ATOM     33  H4  UNL     1       9.521   8.381   3.396  1.00  0.00     0.210 HD
ENDBRANCH  29  32
ENDBRANCH   1  18
TORSDOF 9
ENDMDL
MODEL 5
REMARK VINA RESULT: -6.635677460      3.729      6.674
REMARK  9 active torsions:
REMARK  status: ('A' for Active; 'I' for Inactive)
REMARK    1  A    between atoms: C2_2  and  C3_3 
REMARK    2  A    between atoms: C7_7  and  C8_8 
REMARK    3  A    between atoms: C10_10  and  C11_11 
REMARK    4  A    between atoms: C11_11  and  O1_12 
REMARK    5  A    between atoms: C11_11  and  C12_14 
REMARK    6  A    between atoms: C12_14  and  O2_16 
REMARK    7  A    between atoms: C12_14  and  C14_18 
REMARK    8  A    between atoms: N1_23  and  O3_25 
REMARK    9  A    between atoms: C23_31  and  O4_32 
ROOT
HETATM    1  C12 UNL     1      10.864  14.818   1.065  1.00  0.00     0.086 C 
HETATM    2  C13 UNL     1      10.307  15.941   1.859  1.00  0.00     0.049 C 
ENDROOT
BRANCH   1   3
HETATM    3  C11 UNL     1      11.066  13.548   1.864  1.00  0.00     0.158 C 
BRANCH   3   4
HETATM    4  C10 UNL     1       9.991  12.551   1.864  1.00  0.00     0.033 C 
HETATM    5  C3  UNL     1       8.961  12.414   2.871  1.00  0.00    -0.021 C 
HETATM    6  C4  UNL     1       9.158  12.767   4.287  1.00  0.00     0.020 C 
HETATM    7  C5  UNL     1       8.600  10.891   2.914  1.00  0.00     0.014 C 
HETATM    8  C6  UNL     1       9.932  10.235   2.659  1.00  0.00     0.006 C 
HETATM    9  C7  UNL     1      10.511  11.132   1.581  1.00  0.00    -0.007 C 
BRANCH   5  10
HETATM   10  C2  UNL     1       7.678  13.038   2.421  1.00  0.00    -0.027 C 
HETATM   11  C1  UNL     1       7.013  12.701   1.360  1.00  0.00     0.007 C 
ENDBRANCH   5  10
BRANCH   9  12
HETATM   12  C8  UNL     1      10.120  10.636   0.205  1.00  0.00     0.000 C 
HETATM   13  C9  UNL     1      10.333   9.147   0.068  1.00  0.00     0.005 C 
ENDBRANCH   9  12
ENDBRANCH   3   4
BRANCH   3  14
HETATM   14  O1  UNL     1      12.217  12.873   1.305  1.00  0.00    -0.392 OA
ATOM     15  H1  UNL     1      12.947  13.467   1.438  1.00  0.00     0.210 HD
ENDBRANCH   3  14
ENDBRANCH   1   3
BRANCH   1  16
HETATM   16  O2  UNL     1      12.111  15.238   0.602  1.00  0.00    -0.387 OA
ATOM     17  H2  UNL     1      11.972  15.954  -0.006  1.00  0.00     0.210 HD
ENDBRANCH   1  16
BRANCH   1  18
HETATM   18  C14 UNL     1      10.003  14.516  -0.181  1.00  0.00     0.051 C 
HETATM   19  C15 UNL     1       8.879  15.462  -0.312  1.00  0.00     0.016 C 
HETATM   20  C16 UNL     1       8.383  15.649  -1.726  1.00  0.00     0.000 C 
HETATM   21  C17 UNL     1       7.682  14.509  -2.329  1.00  0.00     0.065 C 
HETATM   22  C21 UNL     1       9.503  16.050  -2.608  1.00  0.00     0.027 C 
HETATM   23  C18 UNL     1       8.083  14.604  -3.771  1.00  0.00     0.038 C 
HETATM   24  N1  UNL     1       7.750  13.770  -4.690  1.00  0.00    -0.273 N 
HETATM   25  C19 UNL     1       8.908  15.789  -3.966  1.00  0.00    -0.038 C 
ATOM     26  H1  UNL     1       7.166  12.972  -4.441  1.00  0.00     0.194 HD
HETATM   27  C20 UNL     1       9.122  16.503  -5.043  1.00  0.00     0.021 C 
HETATM   28  C22 UNL     1      10.785  15.311  -2.444  1.00  0.00     0.042 C 
HETATM   29  C23 UNL     1      10.744  14.214  -1.410  1.00  0.00     0.126 C 
BRANCH  24  30
HETATM   30  O3  UNL     1       8.149  13.913  -5.989  1.00  0.00    -0.290 OA
ATOM     31  H3  UNL     1       7.578  13.717  -6.722  1.00  0.00     0.244 HD
ENDBRANCH  24  30
BRANCH  29  32
HETATM   32  O4  UNL     1      12.048  13.766  -1.281  1.00  0.00    -0.395 OA
ATOM     33  H4  UNL     1      12.722  14.413  -1.109  1.00  0.00     0.210 HD
ENDBRANCH  29  32
ENDBRANCH   1  18
TORSDOF 9
ENDMDL
