MODEL 1
REMARK VINA RESULT: -7.427284733      0.000      0.000
REMARK  7 active torsions:
REMARK  status: ('A' for Active; 'I' for Inactive)
REMARK    1  A    between atoms: O1_1  and  C1_3 
REMARK    2  A    between atoms: C1_3  and  C2_4 
REMARK    3  A    between atoms: C1_3  and  N2_17 
REMARK    4  A    between atoms: C3_5  and  C4_6 
REMARK    5  A    between atoms: C4_6  and  C5_7 
REMARK       I    between atoms: C5_7  and  N1_9 
REMARK    6  A    between atoms: N1_9  and  C6_11 
REMARK    7  A    between atoms: N2_17  and  C12_19 
ROOT
HETATM    1  C2  UNL     1       8.973  49.434  71.796  1.00  0.00     0.052 C 
HETATM    2  C3  UNL     1       8.148  50.108  72.516  1.00  0.00    -0.013 C 
ENDROOT
BRANCH   2   3
HETATM    3  C4  UNL     1       7.020  49.747  73.359  1.00  0.00     0.130 C 
BRANCH   3   4
HETATM    4  C5  UNL     1       6.255  50.966  73.786  1.00  0.00     0.221 C 
HETATM    5  O2  UNL     1       6.102  51.208  74.999  1.00  0.00    -0.273 OA
HETATM    6  N1  UNL     1       5.720  51.817  72.816  1.00  0.00    -0.356 N 
ATOM      7  H1  UNL     1       5.866  51.586  71.832  1.00  0.00     0.162 HD
BRANCH   6   8
HETATM    8  C6  UNL     1       4.968  53.014  73.141  1.00  0.00     0.084 C 
HETATM    9  C7  UNL     1       5.401  54.169  72.272  1.00  0.00     0.025 C 
HETATM   10  C8  UNL     1       4.247  55.048  71.864  1.00  0.00     0.002 C 
HETATM   11  C9  UNL     1       3.240  55.252  72.948  1.00  0.00     0.000 C 
HETATM   12  C10 UNL     1       2.801  54.001  73.636  1.00  0.00     0.002 C 
HETATM   13  C11 UNL     1       3.481  52.829  72.960  1.00  0.00     0.025 C 
ENDBRANCH   6   8
ENDBRANCH   3   4
ENDBRANCH   2   3
BRANCH   1  14
HETATM   14  C1  UNL     1       9.150  48.060  71.509  1.00  0.00     0.135 C 
BRANCH  14  15
HETATM   15  O1  UNL     1      10.181  47.480  72.091  1.00  0.00    -0.346 OA
ATOM     16  H1  UNL     1      10.909  47.262  71.521  1.00  0.00     0.219 HD
ENDBRANCH  14  15
BRANCH  14  17
HETATM   17  N2  UNL     1       8.446  47.150  70.714  1.00  0.00    -0.366 N 
ATOM     18  H2  UNL     1       8.784  46.965  69.769  1.00  0.00     0.162 HD
BRANCH  17  19
HETATM   19  C12 UNL     1       7.246  46.449  71.174  1.00  0.00     0.083 C 
HETATM   20  C13 UNL     1       6.514  45.791  70.027  1.00  0.00     0.025 C 
HETATM   21  C14 UNL     1       5.900  44.536  70.602  1.00  0.00     0.002 C 
HETATM   22  C15 UNL     1       6.290  44.496  72.058  1.00  0.00     0.002 C 
HETATM   23  C16 UNL     1       7.600  45.273  72.050  1.00  0.00     0.025 C 
ENDBRANCH  17  19
ENDBRANCH  14  17
ENDBRANCH   1  14
TORSDOF 7
ENDMDL
MODEL 2
REMARK VINA RESULT: -7.207679439      0.868      1.020
REMARK  7 active torsions:
REMARK  status: ('A' for Active; 'I' for Inactive)
REMARK    1  A    between atoms: O1_1  and  C1_3 
REMARK    2  A    between atoms: C1_3  and  C2_4 
REMARK    3  A    between atoms: C1_3  and  N2_17 
REMARK    4  A    between atoms: C3_5  and  C4_6 
REMARK    5  A    between atoms: C4_6  and  C5_7 
REMARK       I    between atoms: C5_7  and  N1_9 
REMARK    6  A    between atoms: N1_9  and  C6_11 
REMARK    7  A    between atoms: N2_17  and  C12_19 
ROOT
HETATM    1  C2  UNL     1       8.865  49.295  71.895  1.00  0.00     0.052 C 
HETATM    2  C3  UNL     1       8.042  49.901  72.674  1.00  0.00    -0.013 C 
ENDROOT
BRANCH   2   3
HETATM    3  C4  UNL     1       7.013  49.453  73.596  1.00  0.00     0.130 C 
BRANCH   3   4
HETATM    4  C5  UNL     1       6.021  50.546  73.871  1.00  0.00     0.221 C 
HETATM    5  O2  UNL     1       6.145  51.253  74.889  1.00  0.00    -0.273 OA
HETATM    6  N1  UNL     1       4.968  50.759  72.978  1.00  0.00    -0.356 N 
ATOM      7  H1  UNL     1       4.900  50.160  72.155  1.00  0.00     0.162 HD
BRANCH   6   8
HETATM    8  C6  UNL     1       3.967  51.791  73.167  1.00  0.00     0.084 C 
HETATM    9  C7  UNL     1       4.393  53.077  72.500  1.00  0.00     0.025 C 
HETATM   10  C8  UNL     1       3.239  53.805  71.861  1.00  0.00     0.002 C 
HETATM   11  C9  UNL     1       1.981  53.751  72.665  1.00  0.00     0.000 C 
HETATM   12  C10 UNL     1       1.609  52.388  73.150  1.00  0.00     0.002 C 
HETATM   13  C11 UNL     1       2.621  51.402  72.606  1.00  0.00     0.025 C 
ENDBRANCH   6   8
ENDBRANCH   3   4
ENDBRANCH   2   3
BRANCH   1  14
HETATM   14  C1  UNL     1       9.133  47.938  71.592  1.00  0.00     0.135 C 
BRANCH  14  15
HETATM   15  O1  UNL     1      10.220  47.431  72.140  1.00  0.00    -0.346 OA
ATOM     16  H1  UNL     1      10.641  46.733  71.653  1.00  0.00     0.219 HD
ENDBRANCH  14  15
BRANCH  14  17
HETATM   17  N2  UNL     1       8.473  46.983  70.811  1.00  0.00    -0.366 N 
ATOM     18  H2  UNL     1       8.855  46.758  69.893  1.00  0.00     0.162 HD
BRANCH  17  19
HETATM   19  C12 UNL     1       7.260  46.292  71.251  1.00  0.00     0.083 C 
HETATM   20  C13 UNL     1       6.522  45.673  70.086  1.00  0.00     0.025 C 
HETATM   21  C14 UNL     1       5.886  44.415  70.629  1.00  0.00     0.002 C 
HETATM   22  C15 UNL     1       6.270  44.334  72.085  1.00  0.00     0.002 C 
HETATM   23  C16 UNL     1       7.592  45.090  72.099  1.00  0.00     0.025 C 
ENDBRANCH  17  19
ENDBRANCH  14  17
ENDBRANCH   1  14
TORSDOF 7
ENDMDL
MODEL 3
REMARK VINA RESULT: -7.132244663      1.335      1.747
REMARK  7 active torsions:
REMARK  status: ('A' for Active; 'I' for Inactive)
REMARK    1  A    between atoms: O1_1  and  C1_3 
REMARK    2  A    between atoms: C1_3  and  C2_4 
REMARK    3  A    between atoms: C1_3  and  N2_17 
REMARK    4  A    between atoms: C3_5  and  C4_6 
REMARK    5  A    between atoms: C4_6  and  C5_7 
REMARK       I    between atoms: C5_7  and  N1_9 
REMARK    6  A    between atoms: N1_9  and  C6_11 
REMARK    7  A    between atoms: N2_17  and  C12_19 
ROOT
HETATM    1  C2  UNL     1       9.147  49.367  71.671  1.00  0.00     0.052 C 
HETATM    2  C3  UNL     1       8.452  50.244  72.304  1.00  0.00    -0.013 C 
ENDROOT
BRANCH   2   3
HETATM    3  C4  UNL     1       7.355  50.165  73.254  1.00  0.00     0.130 C 
BRANCH   3   4
HETATM    4  C5  UNL     1       6.302  51.190  72.948  1.00  0.00     0.221 C 
HETATM    5  O2  UNL     1       6.632  52.303  72.497  1.00  0.00    -0.273 OA
HETATM    6  N1  UNL     1       4.958  50.882  73.173  1.00  0.00    -0.356 N 
ATOM      7  H1  UNL     1       4.725  49.960  73.543  1.00  0.00     0.162 HD
BRANCH   6   8
HETATM    8  C6  UNL     1       3.878  51.812  72.905  1.00  0.00     0.084 C 
HETATM    9  C7  UNL     1       2.714  51.107  72.252  1.00  0.00     0.025 C 
HETATM   10  C8  UNL     1       1.383  51.621  72.737  1.00  0.00     0.002 C 
HETATM   11  C9  UNL     1       1.353  53.100  72.940  1.00  0.00     0.000 C 
HETATM   12  C10 UNL     1       2.504  53.647  73.721  1.00  0.00     0.002 C 
HETATM   13  C11 UNL     1       3.369  52.484  74.158  1.00  0.00     0.025 C 
ENDBRANCH   6   8
ENDBRANCH   3   4
ENDBRANCH   2   3
BRANCH   1  14
HETATM   14  C1  UNL     1       9.155  47.953  71.619  1.00  0.00     0.135 C 
BRANCH  14  15
HETATM   15  O1  UNL     1      10.009  47.354  72.426  1.00  0.00    -0.346 OA
ATOM     16  H1  UNL     1       9.707  46.543  72.818  1.00  0.00     0.219 HD
ENDBRANCH  14  15
BRANCH  14  17
HETATM   17  N2  UNL     1       8.430  47.018  70.873  1.00  0.00    -0.366 N 
ATOM     18  H2  UNL     1       8.740  46.808  69.924  1.00  0.00     0.162 HD
BRANCH  17  19
HETATM   19  C12 UNL     1       7.248  46.327  71.390  1.00  0.00     0.083 C 
HETATM   20  C13 UNL     1       6.397  45.771  70.271  1.00  0.00     0.025 C 
HETATM   21  C14 UNL     1       5.788  44.500  70.817  1.00  0.00     0.002 C 
HETATM   22  C15 UNL     1       6.299  44.351  72.228  1.00  0.00     0.002 C 
HETATM   23  C16 UNL     1       7.631  45.085  72.155  1.00  0.00     0.025 C 
ENDBRANCH  17  19
ENDBRANCH  14  17
ENDBRANCH   1  14
TORSDOF 7
ENDMDL
MODEL 4
REMARK VINA RESULT: -7.077224906      1.014      1.420
REMARK  7 active torsions:
REMARK  status: ('A' for Active; 'I' for Inactive)
REMARK    1  A    between atoms: O1_1  and  C1_3 
REMARK    2  A    between atoms: C1_3  and  C2_4 
REMARK    3  A    between atoms: C1_3  and  N2_17 
REMARK    4  A    between atoms: C3_5  and  C4_6 
REMARK    5  A    between atoms: C4_6  and  C5_7 
REMARK       I    between atoms: C5_7  and  N1_9 
REMARK    6  A    between atoms: N1_9  and  C6_11 
REMARK    7  A    between atoms: N2_17  and  C12_19 
ROOT
HETATM    1  C2  UNL     1       7.933  48.483  72.954  1.00  0.00     0.052 C 
HETATM    2  C3  UNL     1       7.519  49.680  73.179  1.00  0.00    -0.013 C 
ENDROOT
BRANCH   2   3
HETATM    3  C4  UNL     1       7.623  50.934  72.453  1.00  0.00     0.130 C 
BRANCH   3   4
HETATM    4  C5  UNL     1       6.562  51.901  72.893  1.00  0.00     0.221 C 
HETATM    5  O2  UNL     1       5.980  51.730  73.981  1.00  0.00    -0.273 OA
HETATM    6  N1  UNL     1       6.239  52.985  72.073  1.00  0.00    -0.356 N 
ATOM      7  H1  UNL     1       6.737  53.093  71.189  1.00  0.00     0.162 HD
BRANCH   6   8
HETATM    8  C6  UNL     1       5.227  53.965  72.421  1.00  0.00     0.084 C 
HETATM    9  C7  UNL     1       5.743  55.367  72.202  1.00  0.00     0.025 C 
HETATM   10  C8  UNL     1       4.686  56.292  71.657  1.00  0.00     0.002 C 
HETATM   11  C9  UNL     1       3.334  56.068  72.251  1.00  0.00     0.000 C 
HETATM   12  C10 UNL     1       2.894  54.640  72.282  1.00  0.00     0.002 C 
HETATM   13  C11 UNL     1       3.964  53.805  71.611  1.00  0.00     0.025 C 
ENDBRANCH   6   8
ENDBRANCH   3   4
ENDBRANCH   2   3
BRANCH   1  14
HETATM   14  C1  UNL     1       8.663  47.864  71.912  1.00  0.00     0.135 C 
BRANCH  14  15
HETATM   15  O1  UNL     1       9.973  47.851  72.058  1.00  0.00    -0.346 OA
ATOM     16  H1  UNL     1      10.345  47.039  72.383  1.00  0.00     0.219 HD
ENDBRANCH  14  15
BRANCH  14  17
HETATM   17  N2  UNL     1       8.286  47.239  70.718  1.00  0.00    -0.366 N 
ATOM     18  H2  UNL     1       8.416  47.746  69.842  1.00  0.00     0.162 HD
BRANCH  17  19
HETATM   19  C12 UNL     1       7.713  45.893  70.667  1.00  0.00     0.083 C 
HETATM   20  C13 UNL     1       7.827  45.192  72.002  1.00  0.00     0.025 C 
HETATM   21  C14 UNL     1       6.603  44.312  72.105  1.00  0.00     0.002 C 
HETATM   22  C15 UNL     1       5.814  44.524  70.837  1.00  0.00     0.002 C 
HETATM   23  C16 UNL     1       6.221  45.940  70.452  1.00  0.00     0.025 C 
ENDBRANCH  17  19
ENDBRANCH  14  17
ENDBRANCH   1  14
TORSDOF 7
ENDMDL
MODEL 5
REMARK VINA RESULT: -7.044918018      1.868      2.221
REMARK  7 active torsions:
REMARK  status: ('A' for Active; 'I' for Inactive)
REMARK    1  A    between atoms: O1_1  and  C1_3 
REMARK    2  A    between atoms: C1_3  and  C2_4 
REMARK    3  A    between atoms: C1_3  and  N2_17 
REMARK    4  A    between atoms: C3_5  and  C4_6 
REMARK    5  A    between atoms: C4_6  and  C5_7 
REMARK       I    between atoms: C5_7  and  N1_9 
REMARK    6  A    between atoms: N1_9  and  C6_11 
REMARK    7  A    between atoms: N2_17  and  C12_19 
ROOT
HETATM    1  C2  UNL     1       9.209  48.482  71.767  1.00  0.00     0.052 C 
HETATM    2  C3  UNL     1       9.046  49.717  72.085  1.00  0.00    -0.013 C 
ENDROOT
BRANCH   2   3
HETATM    3  C4  UNL     1       8.695  50.911  71.335  1.00  0.00     0.130 C 
BRANCH   3   4
HETATM    4  C5  UNL     1       7.626  51.695  72.039  1.00  0.00     0.221 C 
HETATM    5  O2  UNL     1       7.518  52.919  71.834  1.00  0.00    -0.273 OA
HETATM    6  N1  UNL     1       6.760  51.040  72.918  1.00  0.00    -0.356 N 
ATOM      7  H1  UNL     1       6.879  50.037  73.061  1.00  0.00     0.162 HD
BRANCH   6   8
HETATM    8  C6  UNL     1       5.701  51.721  73.639  1.00  0.00     0.084 C 
HETATM    9  C7  UNL     1       4.480  51.883  72.766  1.00  0.00     0.025 C 
HETATM   10  C8  UNL     1       3.195  51.698  73.531  1.00  0.00     0.002 C 
HETATM   11  C9  UNL     1       3.228  52.287  74.903  1.00  0.00     0.000 C 
HETATM   12  C10 UNL     1       4.437  51.933  75.706  1.00  0.00     0.002 C 
HETATM   13  C11 UNL     1       5.283  50.982  74.887  1.00  0.00     0.025 C 
ENDBRANCH   6   8
ENDBRANCH   3   4
ENDBRANCH   2   3
BRANCH   1  14
HETATM   14  C1  UNL     1       9.120  47.745  70.563  1.00  0.00     0.135 C 
BRANCH  14  15
HETATM   15  O1  UNL     1      10.136  47.880  69.731  1.00  0.00    -0.346 OA
ATOM     16  H1  UNL     1      10.193  47.230  69.040  1.00  0.00     0.219 HD
ENDBRANCH  14  15
BRANCH  14  17
HETATM   17  N2  UNL     1       8.158  46.874  70.041  1.00  0.00    -0.366 N 
ATOM     18  H2  UNL     1       8.187  46.657  69.045  1.00  0.00     0.162 HD
BRANCH  17  19
HETATM   19  C12 UNL     1       7.111  46.259  70.859  1.00  0.00     0.083 C 
HETATM   20  C13 UNL     1       6.198  45.388  70.026  1.00  0.00     0.025 C 
HETATM   21  C14 UNL     1       5.775  44.257  70.934  1.00  0.00     0.002 C 
HETATM   22  C15 UNL     1       6.451  44.496  72.261  1.00  0.00     0.002 C 
HETATM   23  C16 UNL     1       7.692  45.273  71.841  1.00  0.00     0.025 C 
ENDBRANCH  17  19
ENDBRANCH  14  17
ENDBRANCH   1  14
TORSDOF 7
ENDMDL
