MODEL 1
REMARK VINA RESULT: -7.135242417      0.000      0.000
REMARK  20 active torsions:
REMARK  status: ('A' for Active; 'I' for Inactive)
REMARK    1  A    between atoms: C2_3  and  O2_5 
REMARK    2  A    between atoms: O2_5  and  C3_6 
REMARK    3  A    between atoms: C3_6  and  C4_7 
REMARK    4  A    between atoms: C4_7  and  C5_8 
REMARK    5  A    between atoms: C5_8  and  N2_9 
REMARK    6  A    between atoms: C7_13  and  C8_14 
REMARK    7  A    between atoms: C8_14  and  N4_15 
REMARK    8  A    between atoms: C8_14  and  O3_19 
REMARK    9  A    between atoms: C9_21  and  N5_22 
REMARK   10  A    between atoms: N5_22  and  C10_24 
REMARK   11  A    between atoms: C11_27  and  N7_28 
REMARK   12  A    between atoms: C15_40  and  N11_41 
REMARK   13  A    between atoms: C16_44  and  N12_45 
REMARK   14  A    between atoms: N12_45  and  C17_47 
REMARK   15  A    between atoms: C18_48  and  O4_49 
REMARK   16  A    between atoms: C19_52  and  C20_53 
REMARK   17  A    between atoms: C20_53  and  O6_54 
REMARK   18  A    between atoms: C20_53  and  C21_56 
REMARK   19  A    between atoms: C21_56  and  O7_57 
REMARK   20  A    between atoms: C22_59  and  O8_60 
ROOT
HETATM    1  N1  UNL     1     -43.927 -33.334 140.916  1.00  0.00    -0.186 NA
HETATM    2  C1  UNL     1     -44.078 -32.903 141.986  1.00  0.00     0.170 C 
HETATM    3  C2  UNL     1     -44.270 -32.355 143.300  1.00  0.00     0.365 C 
HETATM    4  O1  UNL     1     -44.588 -33.045 144.297  1.00  0.00    -0.247 OA
ENDROOT
BRANCH   3   5
HETATM    5  O2  UNL     1     -44.101 -30.998 143.493  1.00  0.00    -0.310 OA
BRANCH   5   6
HETATM    6  C3  UNL     1     -45.097 -30.197 144.126  1.00  0.00     0.181 C 
BRANCH   6   7
HETATM    7  C4  UNL     1     -45.343 -28.973 143.266  1.00  0.00     0.047 C 
BRANCH   7   8
HETATM    8  C5  UNL     1     -44.698 -29.244 141.925  1.00  0.00     0.134 C 
BRANCH   8   9
HETATM    9  N2  UNL     1     -45.600 -29.010 140.818  1.00  0.00    -0.317 N 
HETATM   10  C6  UNL     1     -45.488 -28.006 139.917  1.00  0.00     0.122 A 
HETATM   11  N3  UNL     1     -44.618 -26.999 139.742  1.00  0.00    -0.339 N 
HETATM   12  C13 UNL     1     -46.537 -28.130 139.028  1.00  0.00     0.041 A 
HETATM   13  C7  UNL     1     -44.734 -26.088 138.713  1.00  0.00     0.094 A 
ATOM     14  H3  UNL     1     -43.841 -26.903 140.396  1.00  0.00     0.167 HD
HETATM   15  C9  UNL     1     -45.755 -26.164 137.808  1.00  0.00     0.063 A 
HETATM   16  C12 UNL     1     -46.655 -27.226 138.006  1.00  0.00     0.049 A 
HETATM   17  C14 UNL     1     -47.259 -29.232 139.439  1.00  0.00     0.092 A 
HETATM   18  N10 UNL     1     -48.366 -29.820 138.961  1.00  0.00    -0.336 N 
HETATM   19  C23 UNL     1     -46.667 -29.781 140.564  1.00  0.00     0.139 A 
HETATM   20  C15 UNL     1     -48.908 -30.925 139.548  1.00  0.00     0.144 A 
ATOM     21  H10 UNL     1     -48.815 -29.429 138.133  1.00  0.00     0.168 HD
HETATM   22  C16 UNL     1     -48.326 -31.483 140.672  1.00  0.00     0.147 A 
HETATM   23  N13 UNL     1     -47.218 -30.869 141.126  1.00  0.00    -0.324 N 
ATOM     24  H13 UNL     1     -46.765 -31.257 141.953  1.00  0.00     0.169 HD
BRANCH  13  25
HETATM   25  C8  UNL     1     -43.684 -25.048 138.567  1.00  0.00     0.369 C 
BRANCH  25  26
HETATM   26  N4  UNL     1     -42.705 -25.220 139.607  1.00  0.00    -0.047 N 
ATOM     27  H43 UNL     1     -42.079 -26.003 139.425  1.00  0.00     0.277 HD
ATOM     28  H42 UNL     1     -42.008 -24.476 139.610  1.00  0.00     0.277 HD
ATOM     29  H41 UNL     1     -43.183 -25.306 140.504  1.00  0.00     0.277 HD
ENDBRANCH  25  26
BRANCH  25  30
HETATM   30  O3  UNL     1     -43.098 -25.100 137.291  1.00  0.00    -0.365 OA
ATOM     31  H3  UNL     1     -42.233 -24.707 137.298  1.00  0.00     0.212 HD
ENDBRANCH  25  30
ENDBRANCH  13  25
BRANCH  15  32
HETATM   32  N5  UNL     1     -45.974 -25.239 136.770  1.00  0.00    -0.326 N 
ATOM     33  H5  UNL     1     -46.186 -24.268 136.996  1.00  0.00     0.169 HD
BRANCH  32  34
HETATM   34  C10 UNL     1     -45.902 -25.653 135.384  1.00  0.00     0.194 C 
HETATM   35  N6  UNL     1     -44.983 -26.368 134.846  1.00  0.00    -0.319 N 
HETATM   36  C11 UNL     1     -45.245 -26.576 133.446  1.00  0.00     0.399 C 
ATOM     37  H6  UNL     1     -44.174 -26.739 135.344  1.00  0.00     0.166 HD
HETATM   38  N8  UNL     1     -46.298 -25.643 133.123  1.00  0.00    -0.084 NA
HETATM   39  N9  UNL     1     -46.836 -25.342 134.362  1.00  0.00    -0.271 N 
ATOM     40  H9  UNL     1     -47.767 -24.955 134.518  1.00  0.00     0.185 HD
BRANCH  36  41
HETATM   41  N7  UNL     1     -45.768 -27.942 133.319  1.00  0.00    -0.042 N 
ATOM     42  H73 UNL     1     -46.771 -28.008 133.490  1.00  0.00     0.278 HD
ATOM     43  H72 UNL     1     -45.780 -28.282 132.357  1.00  0.00     0.278 HD
ATOM     44  H71 UNL     1     -45.212 -28.524 133.946  1.00  0.00     0.278 HD
ENDBRANCH  36  41
ENDBRANCH  32  34
ENDBRANCH  15  32
BRANCH  20  45
HETATM   45  N11 UNL     1     -49.965 -31.395 138.998  1.00  0.00    -0.382 N 
ATOM     46 2H11 UNL     1     -49.980 -32.265 138.467  1.00  0.00     0.157 HD
ATOM     47 1H11 UNL     1     -50.816 -30.845 139.117  1.00  0.00     0.157 HD
ENDBRANCH  20  45
BRANCH  22  48
HETATM   48  N12 UNL     1     -48.877 -32.628 141.305  1.00  0.00    -0.361 N 
ATOM     49  H12 UNL     1     -49.062 -33.429 140.702  1.00  0.00     0.162 HD
BRANCH  48  50
HETATM   50  C17 UNL     1     -49.202 -32.792 142.675  1.00  0.00     0.169 C 
HETATM   51  C18 UNL     1     -49.723 -34.181 142.935  1.00  0.00     0.282 C 
HETATM   52  O5  UNL     1     -49.532 -34.333 144.306  1.00  0.00    -0.349 OA
HETATM   53  C19 UNL     1     -48.206 -33.928 144.456  1.00  0.00     0.186 C 
HETATM   54  C22 UNL     1     -48.035 -32.686 143.631  1.00  0.00     0.177 C 
BRANCH  51  55
HETATM   55  O4  UNL     1     -51.065 -34.311 142.583  1.00  0.00    -0.369 OA
ATOM     56  H4  UNL     1     -51.636 -34.299 143.342  1.00  0.00     0.212 HD
ENDBRANCH  51  55
BRANCH  53  57
HETATM   57  C20 UNL     1     -47.979 -33.722 145.933  1.00  0.00     0.173 C 
BRANCH  57  58
HETATM   58  O6  UNL     1     -46.708 -33.266 146.194  1.00  0.00    -0.391 OA
ATOM     59  H6  UNL     1     -46.580 -33.091 147.119  1.00  0.00     0.210 HD
ENDBRANCH  57  58
BRANCH  57  60
HETATM   60  C21 UNL     1     -48.311 -34.991 146.688  1.00  0.00     0.198 C 
BRANCH  60  61
HETATM   61  O7  UNL     1     -47.920 -36.067 145.886  1.00  0.00    -0.398 OA
ATOM     62  H7  UNL     1     -48.008 -36.855 146.408  1.00  0.00     0.209 HD
ENDBRANCH  60  61
ENDBRANCH  57  60
ENDBRANCH  53  57
BRANCH  54  63
HETATM   63  O8  UNL     1     -48.201 -31.578 144.496  1.00  0.00    -0.391 OA
ATOM     64  H8  UNL     1     -47.514 -31.562 145.152  1.00  0.00     0.210 HD
ENDBRANCH  54  63
ENDBRANCH  48  50
ENDBRANCH  22  48
ENDBRANCH   8   9
ENDBRANCH   7   8
ENDBRANCH   6   7
ENDBRANCH   5   6
ENDBRANCH   3   5
TORSDOF 20
ENDMDL
MODEL 2
REMARK VINA RESULT: -7.014011299      2.400      4.848
REMARK  20 active torsions:
REMARK  status: ('A' for Active; 'I' for Inactive)
REMARK    1  A    between atoms: C2_3  and  O2_5 
REMARK    2  A    between atoms: O2_5  and  C3_6 
REMARK    3  A    between atoms: C3_6  and  C4_7 
REMARK    4  A    between atoms: C4_7  and  C5_8 
REMARK    5  A    between atoms: C5_8  and  N2_9 
REMARK    6  A    between atoms: C7_13  and  C8_14 
REMARK    7  A    between atoms: C8_14  and  N4_15 
REMARK    8  A    between atoms: C8_14  and  O3_19 
REMARK    9  A    between atoms: C9_21  and  N5_22 
REMARK   10  A    between atoms: N5_22  and  C10_24 
REMARK   11  A    between atoms: C11_27  and  N7_28 
REMARK   12  A    between atoms: C15_40  and  N11_41 
REMARK   13  A    between atoms: C16_44  and  N12_45 
REMARK   14  A    between atoms: N12_45  and  C17_47 
REMARK   15  A    between atoms: C18_48  and  O4_49 
REMARK   16  A    between atoms: C19_52  and  C20_53 
REMARK   17  A    between atoms: C20_53  and  O6_54 
REMARK   18  A    between atoms: C20_53  and  C21_56 
REMARK   19  A    between atoms: C21_56  and  O7_57 
REMARK   20  A    between atoms: C22_59  and  O8_60 
ROOT
HETATM    1  N1  UNL     1     -51.425 -33.692 140.406  1.00  0.00    -0.186 NA
HETATM    2  C1  UNL     1     -50.657 -33.239 141.153  1.00  0.00     0.170 C 
HETATM    3  C2  UNL     1     -49.708 -32.665 142.066  1.00  0.00     0.365 C 
HETATM    4  O1  UNL     1     -49.721 -32.877 143.302  1.00  0.00    -0.247 OA
ENDROOT
BRANCH   3   5
HETATM    5  O2  UNL     1     -48.723 -31.831 141.575  1.00  0.00    -0.310 OA
BRANCH   5   6
HETATM    6  C3  UNL     1     -47.963 -32.163 140.415  1.00  0.00     0.181 C 
BRANCH   6   7
HETATM    7  C4  UNL     1     -48.404 -31.260 139.280  1.00  0.00     0.047 C 
BRANCH   7   8
HETATM    8  C5  UNL     1     -48.385 -29.846 139.815  1.00  0.00     0.134 C 
BRANCH   8   9
HETATM    9  N2  UNL     1     -47.076 -29.235 139.720  1.00  0.00    -0.317 N 
HETATM   10  C6  UNL     1     -46.582 -28.611 138.625  1.00  0.00     0.122 A 
HETATM   11  N3  UNL     1     -47.058 -28.362 137.395  1.00  0.00    -0.339 N 
HETATM   12  C13 UNL     1     -45.312 -28.169 138.940  1.00  0.00     0.041 A 
HETATM   13  C7  UNL     1     -46.329 -27.686 136.440  1.00  0.00     0.094 A 
ATOM     14  H3  UNL     1     -47.996 -28.686 137.158  1.00  0.00     0.167 HD
HETATM   15  C9  UNL     1     -45.067 -27.230 136.698  1.00  0.00     0.063 A 
HETATM   16  C12 UNL     1     -44.585 -27.498 137.992  1.00  0.00     0.049 A 
HETATM   17  C14 UNL     1     -45.085 -28.554 140.246  1.00  0.00     0.092 A 
HETATM   18  N10 UNL     1     -44.037 -28.398 141.068  1.00  0.00    -0.336 N 
HETATM   19  C23 UNL     1     -46.195 -29.223 140.731  1.00  0.00     0.139 A 
HETATM   20  C15 UNL     1     -44.042 -28.875 142.345  1.00  0.00     0.144 A 
ATOM     21  H10 UNL     1     -43.210 -27.908 140.727  1.00  0.00     0.168 HD
HETATM   22  C16 UNL     1     -45.146 -29.545 142.842  1.00  0.00     0.147 A 
HETATM   23  N13 UNL     1     -46.179 -29.685 141.992  1.00  0.00    -0.324 N 
ATOM     24  H13 UNL     1     -47.009 -30.174 142.329  1.00  0.00     0.169 HD
BRANCH  13  25
HETATM   25  C8  UNL     1     -46.969 -27.404 135.130  1.00  0.00     0.369 C 
BRANCH  25  26
HETATM   26  N4  UNL     1     -46.543 -28.393 134.176  1.00  0.00    -0.047 N 
ATOM     27  H43 UNL     1     -46.043 -27.982 133.389  1.00  0.00     0.277 HD
ATOM     28  H42 UNL     1     -45.789 -28.979 134.535  1.00  0.00     0.277 HD
ATOM     29  H41 UNL     1     -47.351 -28.940 133.879  1.00  0.00     0.277 HD
ENDBRANCH  25  26
BRANCH  25  30
HETATM   30  O3  UNL     1     -48.369 -27.371 135.250  1.00  0.00    -0.365 OA
ATOM     31  H3  UNL     1     -48.770 -27.011 134.468  1.00  0.00     0.212 HD
ENDBRANCH  25  30
ENDBRANCH  13  25
BRANCH  15  32
HETATM   32  N5  UNL     1     -44.240 -26.587 135.759  1.00  0.00    -0.326 N 
ATOM     33  H5  UNL     1     -43.762 -27.139 135.046  1.00  0.00     0.169 HD
BRANCH  32  34
HETATM   34  C10 UNL     1     -44.060 -25.151 135.793  1.00  0.00     0.194 C 
HETATM   35  N6  UNL     1     -44.975 -24.269 135.968  1.00  0.00    -0.319 N 
HETATM   36  C11 UNL     1     -44.423 -22.940 135.941  1.00  0.00     0.399 C 
ATOM     37  H6  UNL     1     -45.962 -24.482 136.108  1.00  0.00     0.166 HD
HETATM   38  N8  UNL     1     -43.084 -23.106 135.426  1.00  0.00    -0.084 NA
HETATM   39  N9  UNL     1     -42.836 -24.451 135.637  1.00  0.00    -0.271 N 
ATOM     40  H9  UNL     1     -41.909 -24.876 135.675  1.00  0.00     0.185 HD
BRANCH  36  41
HETATM   41  N7  UNL     1     -44.342 -22.494 137.337  1.00  0.00    -0.042 N 
ATOM     42  H73 UNL     1     -45.180 -22.706 137.878  1.00  0.00     0.278 HD
ATOM     43  H72 UNL     1     -43.687 -23.039 137.897  1.00  0.00     0.278 HD
ATOM     44  H71 UNL     1     -44.120 -21.499 137.310  1.00  0.00     0.278 HD
ENDBRANCH  36  41
ENDBRANCH  32  34
ENDBRANCH  15  32
BRANCH  20  45
HETATM   45  N11 UNL     1     -42.982 -28.662 143.031  1.00  0.00    -0.382 N 
ATOM     46 2H11 UNL     1     -42.963 -28.677 144.051  1.00  0.00     0.157 HD
ATOM     47 1H11 UNL     1     -42.133 -28.473 142.499  1.00  0.00     0.157 HD
ENDBRANCH  20  45
BRANCH  22  48
HETATM   48  N12 UNL     1     -45.171 -30.057 144.166  1.00  0.00    -0.361 N 
ATOM     49  H12 UNL     1     -45.434 -29.397 144.898  1.00  0.00     0.162 HD
BRANCH  48  50
HETATM   50  C17 UNL     1     -44.875 -31.377 144.593  1.00  0.00     0.169 C 
HETATM   51  C18 UNL     1     -45.554 -32.386 143.706  1.00  0.00     0.282 C 
HETATM   52  O5  UNL     1     -44.812 -33.543 143.929  1.00  0.00    -0.349 OA
HETATM   53  C19 UNL     1     -43.506 -33.080 143.772  1.00  0.00     0.186 C 
HETATM   54  C22 UNL     1     -43.419 -31.772 144.501  1.00  0.00     0.177 C 
BRANCH  51  55
HETATM   55  O4  UNL     1     -46.895 -32.559 144.041  1.00  0.00    -0.369 OA
ATOM     56  H4  UNL     1     -47.189 -33.450 143.887  1.00  0.00     0.212 HD
ENDBRANCH  51  55
BRANCH  53  57
HETATM   57  C20 UNL     1     -42.597 -34.152 144.320  1.00  0.00     0.173 C 
BRANCH  57  58
HETATM   58  O6  UNL     1     -41.334 -34.070 143.783  1.00  0.00    -0.391 OA
ATOM     59  H6  UNL     1     -41.229 -33.294 143.246  1.00  0.00     0.210 HD
ENDBRANCH  57  58
BRANCH  57  60
HETATM   60  C21 UNL     1     -43.228 -35.514 144.124  1.00  0.00     0.198 C 
BRANCH  60  61
HETATM   61  O7  UNL     1     -42.890 -35.948 142.840  1.00  0.00    -0.398 OA
ATOM     62  H7  UNL     1     -43.505 -36.633 142.602  1.00  0.00     0.209 HD
ENDBRANCH  60  61
ENDBRANCH  57  60
ENDBRANCH  53  57
BRANCH  54  63
HETATM   63  O8  UNL     1     -42.895 -32.039 145.789  1.00  0.00    -0.391 OA
ATOM     64  H8  UNL     1     -42.615 -32.945 145.853  1.00  0.00     0.210 HD
ENDBRANCH  54  63
ENDBRANCH  48  50
ENDBRANCH  22  48
ENDBRANCH   8   9
ENDBRANCH   7   8
ENDBRANCH   6   7
ENDBRANCH   5   6
ENDBRANCH   3   5
TORSDOF 20
ENDMDL
MODEL 3
REMARK VINA RESULT: -6.990450020      5.747     11.179
REMARK  20 active torsions:
REMARK  status: ('A' for Active; 'I' for Inactive)
REMARK    1  A    between atoms: C2_3  and  O2_5 
REMARK    2  A    between atoms: O2_5  and  C3_6 
REMARK    3  A    between atoms: C3_6  and  C4_7 
REMARK    4  A    between atoms: C4_7  and  C5_8 
REMARK    5  A    between atoms: C5_8  and  N2_9 
REMARK    6  A    between atoms: C7_13  and  C8_14 
REMARK    7  A    between atoms: C8_14  and  N4_15 
REMARK    8  A    between atoms: C8_14  and  O3_19 
REMARK    9  A    between atoms: C9_21  and  N5_22 
REMARK   10  A    between atoms: N5_22  and  C10_24 
REMARK   11  A    between atoms: C11_27  and  N7_28 
REMARK   12  A    between atoms: C15_40  and  N11_41 
REMARK   13  A    between atoms: C16_44  and  N12_45 
REMARK   14  A    between atoms: N12_45  and  C17_47 
REMARK   15  A    between atoms: C18_48  and  O4_49 
REMARK   16  A    between atoms: C19_52  and  C20_53 
REMARK   17  A    between atoms: C20_53  and  O6_54 
REMARK   18  A    between atoms: C20_53  and  C21_56 
REMARK   19  A    between atoms: C21_56  and  O7_57 
REMARK   20  A    between atoms: C22_59  and  O8_60 
ROOT
HETATM    1  N1  UNL     1     -51.423 -33.473 140.734  1.00  0.00    -0.186 NA
HETATM    2  C1  UNL     1     -50.650 -33.505 141.603  1.00  0.00     0.170 C 
HETATM    3  C2  UNL     1     -49.689 -33.530 142.670  1.00  0.00     0.365 C 
HETATM    4  O1  UNL     1     -49.930 -33.998 143.807  1.00  0.00    -0.247 OA
ENDROOT
BRANCH   3   5
HETATM    5  O2  UNL     1     -48.427 -33.013 142.449  1.00  0.00    -0.310 OA
BRANCH   5   6
HETATM    6  C3  UNL     1     -48.174 -31.611 142.464  1.00  0.00     0.181 C 
BRANCH   6   7
HETATM    7  C4  UNL     1     -48.407 -31.098 143.873  1.00  0.00     0.047 C 
BRANCH   7   8
HETATM    8  C5  UNL     1     -47.049 -30.996 144.530  1.00  0.00     0.134 C 
BRANCH   8   9
HETATM    9  N2  UNL     1     -46.601 -32.260 145.076  1.00  0.00    -0.317 N 
HETATM   10  C6  UNL     1     -47.166 -32.903 146.123  1.00  0.00     0.122 A 
HETATM   11  N3  UNL     1     -48.207 -32.642 146.930  1.00  0.00    -0.339 N 
HETATM   12  C13 UNL     1     -46.450 -34.065 146.329  1.00  0.00     0.041 A 
HETATM   13  C7  UNL     1     -48.584 -33.488 147.952  1.00  0.00     0.094 A 
ATOM     14  H3  UNL     1     -48.740 -31.785 146.782  1.00  0.00     0.167 HD
HETATM   15  C9  UNL     1     -47.907 -34.650 148.201  1.00  0.00     0.063 A 
HETATM   16  C12 UNL     1     -46.822 -34.907 147.344  1.00  0.00     0.049 A 
HETATM   17  C14 UNL     1     -45.456 -34.077 145.372  1.00  0.00     0.092 A 
HETATM   18  N10 UNL     1     -44.474 -34.949 145.096  1.00  0.00    -0.336 N 
HETATM   19  C23 UNL     1     -45.554 -32.941 144.587  1.00  0.00     0.139 A 
HETATM   20  C15 UNL     1     -43.591 -34.743 144.078  1.00  0.00     0.144 A 
ATOM     21  H10 UNL     1     -44.387 -35.791 145.664  1.00  0.00     0.168 HD
HETATM   22  C16 UNL     1     -43.679 -33.612 143.286  1.00  0.00     0.147 A 
HETATM   23  N13 UNL     1     -44.674 -32.758 143.591  1.00  0.00    -0.324 N 
ATOM     24  H13 UNL     1     -44.765 -31.915 143.025  1.00  0.00     0.169 HD
BRANCH  13  25
HETATM   25  C8  UNL     1     -49.788 -33.143 148.748  1.00  0.00     0.369 C 
BRANCH  25  26
HETATM   26  N4  UNL     1     -50.305 -31.879 148.295  1.00  0.00    -0.047 N 
ATOM     27  H43 UNL     1     -49.966 -31.633 147.365  1.00  0.00     0.277 HD
ATOM     28  H42 UNL     1     -51.301 -31.923 148.078  1.00  0.00     0.277 HD
ATOM     29  H41 UNL     1     -50.090 -31.163 148.988  1.00  0.00     0.277 HD
ENDBRANCH  25  26
BRANCH  25  30
HETATM   30  O3  UNL     1     -50.757 -34.158 148.663  1.00  0.00    -0.365 OA
ATOM     31  H3  UNL     1     -50.728 -34.722 149.427  1.00  0.00     0.212 HD
ENDBRANCH  25  30
ENDBRANCH  13  25
BRANCH  15  32
HETATM   32  N5  UNL     1     -48.193 -35.531 149.259  1.00  0.00    -0.326 N 
ATOM     33  H5  UNL     1     -48.043 -35.230 150.222  1.00  0.00     0.169 HD
BRANCH  32  34
HETATM   34  C10 UNL     1     -48.699 -36.862 148.996  1.00  0.00     0.194 C 
HETATM   35  N6  UNL     1     -48.420 -37.930 149.651  1.00  0.00    -0.319 N 
HETATM   36  C11 UNL     1     -49.109 -39.068 149.101  1.00  0.00     0.399 C 
ATOM     37  H6  UNL     1     -47.793 -37.966 150.455  1.00  0.00     0.166 HD
HETATM   38  N8  UNL     1     -49.621 -38.612 147.831  1.00  0.00    -0.084 NA
HETATM   39  N9  UNL     1     -49.598 -37.234 147.964  1.00  0.00    -0.271 N 
ATOM     40  H9  UNL     1     -50.146 -36.583 147.402  1.00  0.00     0.185 HD
BRANCH  36  41
HETATM   41  N7  UNL     1     -50.239 -39.343 149.996  1.00  0.00    -0.042 N 
ATOM     42  H73 UNL     1     -50.394 -40.338 150.156  1.00  0.00     0.278 HD
ATOM     43  H72 UNL     1     -50.058 -39.085 150.966  1.00  0.00     0.278 HD
ATOM     44  H71 UNL     1     -51.047 -38.868 149.596  1.00  0.00     0.278 HD
ENDBRANCH  36  41
ENDBRANCH  32  34
ENDBRANCH  15  32
BRANCH  20  45
HETATM   45  N11 UNL     1     -42.700 -35.648 143.913  1.00  0.00    -0.382 N 
ATOM     46 2H11 UNL     1     -42.923 -36.624 143.717  1.00  0.00     0.157 HD
ATOM     47 1H11 UNL     1     -41.730 -35.343 143.988  1.00  0.00     0.157 HD
ENDBRANCH  20  45
BRANCH  22  48
HETATM   48  N12 UNL     1     -42.766 -33.373 142.225  1.00  0.00    -0.361 N 
ATOM     49  H12 UNL     1     -43.003 -33.790 141.326  1.00  0.00     0.162 HD
BRANCH  48  50
HETATM   50  C17 UNL     1     -41.563 -32.623 142.267  1.00  0.00     0.169 C 
HETATM   51  C18 UNL     1     -41.849 -31.152 142.121  1.00  0.00     0.282 C 
HETATM   52  O5  UNL     1     -40.706 -30.559 142.651  1.00  0.00    -0.349 OA
HETATM   53  C19 UNL     1     -40.568 -31.237 143.862  1.00  0.00     0.186 C 
HETATM   54  C22 UNL     1     -40.806 -32.691 143.575  1.00  0.00     0.177 C 
BRANCH  51  55
HETATM   55  O4  UNL     1     -42.051 -30.788 140.792  1.00  0.00    -0.369 OA
ATOM     56  H4  UNL     1     -42.683 -30.083 140.707  1.00  0.00     0.212 HD
ENDBRANCH  51  55
BRANCH  53  57
HETATM   57  C20 UNL     1     -39.183 -30.931 144.375  1.00  0.00     0.173 C 
BRANCH  57  58
HETATM   58  O6  UNL     1     -38.999 -31.403 145.654  1.00  0.00    -0.391 OA
ATOM     59  H6  UNL     1     -38.465 -30.812 146.173  1.00  0.00     0.210 HD
ENDBRANCH  57  58
BRANCH  57  60
HETATM   60  C21 UNL     1     -38.904 -29.449 144.254  1.00  0.00     0.198 C 
BRANCH  60  61
HETATM   61  O7  UNL     1     -40.047 -28.773 144.687  1.00  0.00    -0.398 OA
ATOM     62  H7  UNL     1     -39.762 -28.080 145.271  1.00  0.00     0.209 HD
ENDBRANCH  60  61
ENDBRANCH  57  60
ENDBRANCH  53  57
BRANCH  54  63
HETATM   63  O8  UNL     1     -39.542 -33.298 143.386  1.00  0.00    -0.391 OA
ATOM     64  H8  UNL     1     -38.881 -32.862 143.912  1.00  0.00     0.210 HD
ENDBRANCH  54  63
ENDBRANCH  48  50
ENDBRANCH  22  48
ENDBRANCH   8   9
ENDBRANCH   7   8
ENDBRANCH   6   7
ENDBRANCH   5   6
ENDBRANCH   3   5
TORSDOF 20
ENDMDL
MODEL 4
REMARK VINA RESULT: -6.929446518      3.375      9.527
REMARK  20 active torsions:
REMARK  status: ('A' for Active; 'I' for Inactive)
REMARK    1  A    between atoms: C2_3  and  O2_5 
REMARK    2  A    between atoms: O2_5  and  C3_6 
REMARK    3  A    between atoms: C3_6  and  C4_7 
REMARK    4  A    between atoms: C4_7  and  C5_8 
REMARK    5  A    between atoms: C5_8  and  N2_9 
REMARK    6  A    between atoms: C7_13  and  C8_14 
REMARK    7  A    between atoms: C8_14  and  N4_15 
REMARK    8  A    between atoms: C8_14  and  O3_19 
REMARK    9  A    between atoms: C9_21  and  N5_22 
REMARK   10  A    between atoms: N5_22  and  C10_24 
REMARK   11  A    between atoms: C11_27  and  N7_28 
REMARK   12  A    between atoms: C15_40  and  N11_41 
REMARK   13  A    between atoms: C16_44  and  N12_45 
REMARK   14  A    between atoms: N12_45  and  C17_47 
REMARK   15  A    between atoms: C18_48  and  O4_49 
REMARK   16  A    between atoms: C19_52  and  C20_53 
REMARK   17  A    between atoms: C20_53  and  O6_54 
REMARK   18  A    between atoms: C20_53  and  C21_56 
REMARK   19  A    between atoms: C21_56  and  O7_57 
REMARK   20  A    between atoms: C22_59  and  O8_60 
ROOT
HETATM    1  N1  UNL     1     -51.400 -33.341 139.554  1.00  0.00    -0.186 NA
HETATM    2  C1  UNL     1     -50.994 -33.396 140.643  1.00  0.00     0.170 C 
HETATM    3  C2  UNL     1     -50.494 -33.446 141.989  1.00  0.00     0.365 C 
HETATM    4  O1  UNL     1     -50.654 -34.429 142.749  1.00  0.00    -0.247 OA
ENDROOT
BRANCH   3   5
HETATM    5  O2  UNL     1     -49.801 -32.361 142.489  1.00  0.00    -0.310 OA
BRANCH   5   6
HETATM    6  C3  UNL     1     -48.430 -32.453 142.866  1.00  0.00     0.181 C 
BRANCH   6   7
HETATM    7  C4  UNL     1     -47.750 -31.141 142.524  1.00  0.00     0.047 C 
BRANCH   7   8
HETATM    8  C5  UNL     1     -47.103 -31.325 141.170  1.00  0.00     0.134 C 
BRANCH   8   9
HETATM    9  N2  UNL     1     -45.754 -30.802 141.125  1.00  0.00    -0.317 N 
HETATM   10  C6  UNL     1     -44.674 -31.374 141.707  1.00  0.00     0.122 A 
HETATM   11  N3  UNL     1     -44.483 -32.483 142.438  1.00  0.00    -0.339 N 
HETATM   12  C13 UNL     1     -43.585 -30.571 141.433  1.00  0.00     0.041 A 
HETATM   13  C7  UNL     1     -43.244 -32.848 142.923  1.00  0.00     0.094 A 
ATOM     14  H3  UNL     1     -45.285 -33.080 142.643  1.00  0.00     0.167 HD
HETATM   15  C9  UNL     1     -42.134 -32.088 142.684  1.00  0.00     0.063 A 
HETATM   16  C12 UNL     1     -42.353 -30.931 141.915  1.00  0.00     0.049 A 
HETATM   17  C14 UNL     1     -44.063 -29.521 140.677  1.00  0.00     0.092 A 
HETATM   18  N10 UNL     1     -43.466 -28.450 140.133  1.00  0.00    -0.336 N 
HETATM   19  C23 UNL     1     -45.426 -29.669 140.486  1.00  0.00     0.139 A 
HETATM   20  C15 UNL     1     -44.159 -27.524 139.410  1.00  0.00     0.144 A 
ATOM     21  H10 UNL     1     -42.462 -28.324 140.263  1.00  0.00     0.168 HD
HETATM   22  C16 UNL     1     -45.522 -27.663 139.212  1.00  0.00     0.147 A 
HETATM   23  N13 UNL     1     -46.089 -28.747 139.772  1.00  0.00    -0.324 N 
ATOM     24  H13 UNL     1     -47.093 -28.877 139.643  1.00  0.00     0.169 HD
BRANCH  13  25
HETATM   25  C8  UNL     1     -43.126 -34.127 143.667  1.00  0.00     0.369 C 
BRANCH  25  26
HETATM   26  N4  UNL     1     -42.461 -35.095 142.835  1.00  0.00    -0.047 N 
ATOM     27  H43 UNL     1     -42.188 -34.707 141.932  1.00  0.00     0.277 HD
ATOM     28  H42 UNL     1     -41.530 -35.328 143.179  1.00  0.00     0.277 HD
ATOM     29  H41 UNL     1     -43.056 -35.918 142.740  1.00  0.00     0.277 HD
ENDBRANCH  25  26
BRANCH  25  30
HETATM   30  O3  UNL     1     -42.450 -33.942 144.885  1.00  0.00    -0.365 OA
ATOM     31  H3  UNL     1     -42.922 -33.341 145.449  1.00  0.00     0.212 HD
ENDBRANCH  25  30
ENDBRANCH  13  25
BRANCH  15  32
HETATM   32  N5  UNL     1     -40.852 -32.362 143.194  1.00  0.00    -0.326 N 
ATOM     33  H5  UNL     1     -40.490 -33.315 143.163  1.00  0.00     0.169 HD
BRANCH  32  34
HETATM   34  C10 UNL     1     -40.041 -31.306 143.763  1.00  0.00     0.194 C 
HETATM   35  N6  UNL     1     -40.242 -30.704 144.878  1.00  0.00    -0.319 N 
HETATM   36  C11 UNL     1     -39.230 -29.708 145.117  1.00  0.00     0.399 C 
ATOM     37  H6  UNL     1     -41.016 -30.904 145.511  1.00  0.00     0.166 HD
HETATM   38  N8  UNL     1     -38.542 -29.569 143.855  1.00  0.00    -0.084 NA
HETATM   39  N9  UNL     1     -38.873 -30.739 143.191  1.00  0.00    -0.271 N 
ATOM     40  H9  UNL     1     -38.354 -31.133 142.408  1.00  0.00     0.185 HD
BRANCH  36  41
HETATM   41  N7  UNL     1     -38.304 -30.283 146.099  1.00  0.00    -0.042 N 
ATOM     42  H73 UNL     1     -38.300 -29.786 146.990  1.00  0.00     0.278 HD
ATOM     43  H72 UNL     1     -38.609 -31.187 146.461  1.00  0.00     0.278 HD
ATOM     44  H71 UNL     1     -37.389 -30.315 145.651  1.00  0.00     0.278 HD
ENDBRANCH  36  41
ENDBRANCH  32  34
ENDBRANCH  15  32
BRANCH  20  45
HETATM   45  N11 UNL     1     -43.477 -26.547 138.941  1.00  0.00    -0.382 N 
ATOM     46 2H11 UNL     1     -43.080 -26.542 138.002  1.00  0.00     0.157 HD
ATOM     47 1H11 UNL     1     -43.342 -25.752 139.565  1.00  0.00     0.157 HD
ENDBRANCH  20  45
BRANCH  22  48
HETATM   48  N12 UNL     1     -46.266 -26.708 138.470  1.00  0.00    -0.361 N 
ATOM     49  H12 UNL     1     -46.534 -25.861 138.970  1.00  0.00     0.162 HD
BRANCH  48  50
HETATM   50  C17 UNL     1     -46.681 -26.791 137.117  1.00  0.00     0.169 C 
HETATM   51  C18 UNL     1     -46.702 -25.425 136.484  1.00  0.00     0.282 C 
HETATM   52  O5  UNL     1     -46.643 -25.713 135.123  1.00  0.00    -0.349 OA
HETATM   53  C19 UNL     1     -45.578 -26.612 135.067  1.00  0.00     0.186 C 
HETATM   54  C22 UNL     1     -45.759 -27.570 136.207  1.00  0.00     0.177 C 
BRANCH  51  55
HETATM   55  O4  UNL     1     -47.853 -24.713 136.812  1.00  0.00    -0.369 OA
ATOM     56  H4  UNL     1     -48.165 -24.185 136.087  1.00  0.00     0.212 HD
ENDBRANCH  51  55
BRANCH  53  57
HETATM   57  C20 UNL     1     -45.628 -27.260 133.705  1.00  0.00     0.173 C 
BRANCH  57  58
HETATM   58  O6  UNL     1     -44.474 -27.036 132.993  1.00  0.00    -0.391 OA
ATOM     59  H6  UNL     1     -43.801 -27.673 133.204  1.00  0.00     0.210 HD
ENDBRANCH  57  58
BRANCH  57  60
HETATM   60  C21 UNL     1     -46.868 -26.808 132.964  1.00  0.00     0.198 C 
BRANCH  60  61
HETATM   61  O7  UNL     1     -47.926 -27.616 133.391  1.00  0.00    -0.398 OA
ATOM     62  H7  UNL     1     -48.595 -27.042 133.744  1.00  0.00     0.209 HD
ENDBRANCH  60  61
ENDBRANCH  57  60
ENDBRANCH  53  57
BRANCH  54  63
HETATM   63  O8  UNL     1     -46.416 -28.715 135.698  1.00  0.00    -0.391 OA
ATOM     64  H8  UNL     1     -45.969 -29.040 134.924  1.00  0.00     0.210 HD
ENDBRANCH  54  63
ENDBRANCH  48  50
ENDBRANCH  22  48
ENDBRANCH   8   9
ENDBRANCH   7   8
ENDBRANCH   6   7
ENDBRANCH   5   6
ENDBRANCH   3   5
TORSDOF 20
ENDMDL
MODEL 5
REMARK VINA RESULT: -6.859846353      5.876     11.421
REMARK  20 active torsions:
REMARK  status: ('A' for Active; 'I' for Inactive)
REMARK    1  A    between atoms: C2_3  and  O2_5 
REMARK    2  A    between atoms: O2_5  and  C3_6 
REMARK    3  A    between atoms: C3_6  and  C4_7 
REMARK    4  A    between atoms: C4_7  and  C5_8 
REMARK    5  A    between atoms: C5_8  and  N2_9 
REMARK    6  A    between atoms: C7_13  and  C8_14 
REMARK    7  A    between atoms: C8_14  and  N4_15 
REMARK    8  A    between atoms: C8_14  and  O3_19 
REMARK    9  A    between atoms: C9_21  and  N5_22 
REMARK   10  A    between atoms: N5_22  and  C10_24 
REMARK   11  A    between atoms: C11_27  and  N7_28 
REMARK   12  A    between atoms: C15_40  and  N11_41 
REMARK   13  A    between atoms: C16_44  and  N12_45 
REMARK   14  A    between atoms: N12_45  and  C17_47 
REMARK   15  A    between atoms: C18_48  and  O4_49 
REMARK   16  A    between atoms: C19_52  and  C20_53 
REMARK   17  A    between atoms: C20_53  and  O6_54 
REMARK   18  A    between atoms: C20_53  and  C21_56 
REMARK   19  A    between atoms: C21_56  and  O7_57 
REMARK   20  A    between atoms: C22_59  and  O8_60 
ROOT
HETATM    1  N1  UNL     1     -51.436 -33.512 140.002  1.00  0.00    -0.186 NA
HETATM    2  C1  UNL     1     -50.441 -32.945 140.207  1.00  0.00     0.170 C 
HETATM    3  C2  UNL     1     -49.209 -32.256 140.474  1.00  0.00     0.365 C 
HETATM    4  O1  UNL     1     -48.467 -31.793 139.575  1.00  0.00    -0.247 OA
ENDROOT
BRANCH   3   5
HETATM    5  O2  UNL     1     -48.805 -32.086 141.783  1.00  0.00    -0.310 OA
BRANCH   5   6
HETATM    6  C3  UNL     1     -49.402 -32.809 142.856  1.00  0.00     0.181 C 
BRANCH   6   7
HETATM    7  C4  UNL     1     -49.811 -31.820 143.931  1.00  0.00     0.047 C 
BRANCH   7   8
HETATM    8  C5  UNL     1     -48.534 -31.257 144.513  1.00  0.00     0.134 C 
BRANCH   8   9
HETATM    9  N2  UNL     1     -47.879 -32.182 145.414  1.00  0.00    -0.317 N 
HETATM   10  C6  UNL     1     -48.375 -32.598 146.602  1.00  0.00     0.122 A 
HETATM   11  N3  UNL     1     -49.500 -32.343 147.288  1.00  0.00    -0.339 N 
HETATM   12  C13 UNL     1     -47.455 -33.470 147.150  1.00  0.00     0.041 A 
HETATM   13  C7  UNL     1     -49.769 -32.916 148.513  1.00  0.00     0.094 A 
ATOM     14  H3  UNL     1     -50.183 -31.700 146.887  1.00  0.00     0.167 HD
HETATM   15  C9  UNL     1     -48.891 -33.783 149.102  1.00  0.00     0.063 A 
HETATM   16  C12 UNL     1     -47.719 -34.040 148.368  1.00  0.00     0.049 A 
HETATM   17  C14 UNL     1     -46.415 -33.547 146.247  1.00  0.00     0.092 A 
HETATM   18  N10 UNL     1     -45.261 -34.231 146.249  1.00  0.00    -0.336 N 
HETATM   19  C23 UNL     1     -46.685 -32.736 145.158  1.00  0.00     0.139 A 
HETATM   20  C15 UNL     1     -44.368 -34.147 145.222  1.00  0.00     0.144 A 
ATOM     21  H10 UNL     1     -45.045 -34.834 147.043  1.00  0.00     0.168 HD
HETATM   22  C16 UNL     1     -44.628 -33.339 144.128  1.00  0.00     0.147 A 
HETATM   23  N13 UNL     1     -45.793 -32.667 144.158  1.00  0.00    -0.324 N 
ATOM     24  H13 UNL     1     -46.013 -32.063 143.366  1.00  0.00     0.169 HD
BRANCH  13  25
HETATM   25  C8  UNL     1     -51.071 -32.620 149.162  1.00  0.00     0.369 C 
BRANCH  25  26
HETATM   26  N4  UNL     1     -51.675 -31.489 148.509  1.00  0.00    -0.047 N 
ATOM     27  H43 UNL     1     -51.212 -31.255 147.631  1.00  0.00     0.277 HD
ATOM     28  H42 UNL     1     -52.597 -31.706 148.133  1.00  0.00     0.277 HD
ATOM     29  H41 UNL     1     -51.696 -30.702 149.158  1.00  0.00     0.277 HD
ENDBRANCH  25  26
BRANCH  25  30
HETATM   30  O3  UNL     1     -51.915 -33.743 149.135  1.00  0.00    -0.365 OA
ATOM     31  H3  UNL     1     -52.376 -33.843 149.960  1.00  0.00     0.212 HD
ENDBRANCH  25  30
ENDBRANCH  13  25
BRANCH  15  32
HETATM   32  N5  UNL     1     -49.067 -34.360 150.373  1.00  0.00    -0.326 N 
ATOM     33  H5  UNL     1     -49.702 -33.924 151.041  1.00  0.00     0.169 HD
BRANCH  32  34
HETATM   34  C10 UNL     1     -48.355 -35.565 150.743  1.00  0.00     0.194 C 
HETATM   35  N6  UNL     1     -48.580 -36.751 150.307  1.00  0.00    -0.319 N 
HETATM   36  C11 UNL     1     -47.673 -37.699 150.899  1.00  0.00     0.399 C 
ATOM     37  H6  UNL     1     -49.305 -36.989 149.631  1.00  0.00     0.166 HD
HETATM   38  N8  UNL     1     -47.049 -36.985 151.988  1.00  0.00    -0.084 NA
HETATM   39  N9  UNL     1     -47.275 -35.659 151.658  1.00  0.00    -0.271 N 
ATOM     40  H9  UNL     1     -46.744 -34.867 152.021  1.00  0.00     0.185 HD
BRANCH  36  41
HETATM   41  N7  UNL     1     -46.657 -37.994 149.882  1.00  0.00    -0.042 N 
ATOM     42  H73 UNL     1     -45.702 -37.920 150.233  1.00  0.00     0.278 HD
ATOM     43  H72 UNL     1     -46.621 -38.979 149.622  1.00  0.00     0.278 HD
ATOM     44  H71 UNL     1     -46.847 -37.374 149.095  1.00  0.00     0.278 HD
ENDBRANCH  36  41
ENDBRANCH  32  34
ENDBRANCH  15  32
BRANCH  20  45
HETATM   45  N11 UNL     1     -43.304 -34.849 145.340  1.00  0.00    -0.382 N 
ATOM     46 2H11 UNL     1     -43.149 -35.506 146.105  1.00  0.00     0.157 HD
ATOM     47 1H11 UNL     1     -42.597 -34.719 144.617  1.00  0.00     0.157 HD
ENDBRANCH  20  45
BRANCH  22  48
HETATM   48  N12 UNL     1     -43.709 -33.229 143.051  1.00  0.00    -0.361 N 
ATOM     49  H12 UNL     1     -44.077 -33.441 142.124  1.00  0.00     0.162 HD
BRANCH  48  50
HETATM   50  C17 UNL     1     -42.342 -32.860 143.109  1.00  0.00     0.169 C 
HETATM   51  C18 UNL     1     -41.886 -32.302 141.787  1.00  0.00     0.282 C 
HETATM   52  O5  UNL     1     -40.751 -31.573 142.133  1.00  0.00    -0.349 OA
HETATM   53  C19 UNL     1     -41.214 -30.818 143.210  1.00  0.00     0.186 C 
HETATM   54  C22 UNL     1     -42.016 -31.744 144.076  1.00  0.00     0.177 C 
BRANCH  51  55
HETATM   55  O4  UNL     1     -41.594 -33.307 140.868  1.00  0.00    -0.369 OA
ATOM     56  H4  UNL     1     -40.811 -33.115 140.365  1.00  0.00     0.212 HD
ENDBRANCH  51  55
BRANCH  53  57
HETATM   57  C20 UNL     1     -39.997 -30.240 143.890  1.00  0.00     0.173 C 
BRANCH  57  58
HETATM   58  O6  UNL     1     -39.941 -28.873 143.755  1.00  0.00    -0.391 OA
ATOM     59  H6  UNL     1     -39.588 -28.457 144.533  1.00  0.00     0.210 HD
ENDBRANCH  57  58
BRANCH  57  60
HETATM   60  C21 UNL     1     -38.748 -30.929 143.384  1.00  0.00     0.198 C 
BRANCH  60  61
HETATM   61  O7  UNL     1     -38.598 -32.109 144.117  1.00  0.00    -0.398 OA
ATOM     62  H7  UNL     1     -38.639 -31.877 145.038  1.00  0.00     0.209 HD
ENDBRANCH  60  61
ENDBRANCH  57  60
ENDBRANCH  53  57
BRANCH  54  63
HETATM   63  O8  UNL     1     -41.161 -32.211 145.103  1.00  0.00    -0.391 OA
ATOM     64  H8  UNL     1     -40.530 -31.541 145.340  1.00  0.00     0.210 HD
ENDBRANCH  54  63
ENDBRANCH  48  50
ENDBRANCH  22  48
ENDBRANCH   8   9
ENDBRANCH   7   8
ENDBRANCH   6   7
ENDBRANCH   5   6
ENDBRANCH   3   5
TORSDOF 20
ENDMDL
