MODEL 1
REMARK VINA RESULT: -10.700436684      0.000      0.000
REMARK  10 active torsions:
REMARK  status: ('A' for Active; 'I' for Inactive)
REMARK    1  A    between atoms: C4_10  and  C5_11 
REMARK    2  A    between atoms: C5_11  and  N4_12 
REMARK    3  A    between atoms: N4_12  and  C6_14 
REMARK    4  A    between atoms: C7_17  and  N6_18 
REMARK    5  A    between atoms: N6_18  and  C8_20 
REMARK    6  A    between atoms: C9_25  and  C10_26 
REMARK    7  A    between atoms: C10_26  and  C11_27 
REMARK    8  A    between atoms: C13_30  and  N9_31 
REMARK    9  A    between atoms: C14_39  and  N12_40 
REMARK   10  A    between atoms: C17_43  and  N13_44 
ROOT
HETATM    1  N1  UNL     1      -5.449  27.266  27.323  1.00  0.00    -0.190 NA
HETATM    2  C1  UNL     1      -4.945  27.083  28.342  1.00  0.00     0.120 C 
HETATM    3  C2  UNL     1      -4.318  26.834  29.593  1.00  0.00     0.142 A 
HETATM    4  N2  UNL     1      -3.676  27.762  30.332  1.00  0.00    -0.298 N 
ATOM      5  H2  UNL     1      -3.556  28.748  30.098  1.00  0.00     0.171 HD
HETATM    6  C3  UNL     1      -3.226  27.143  31.434  1.00  0.00     0.325 A 
HETATM    7  O1  UNL     1      -2.575  27.712  32.352  1.00  0.00    -0.247 OA
HETATM    8  N3  UNL     1      -3.591  25.831  31.372  1.00  0.00    -0.308 N 
ATOM      9  H3  UNL     1      -3.381  25.124  32.077  1.00  0.00     0.170 HD
HETATM   10  C4  UNL     1      -4.272  25.616  30.235  1.00  0.00     0.069 A 
ENDROOT
BRANCH  10  11
HETATM   11  C5  UNL     1      -4.851  24.353  29.765  1.00  0.00     0.198 C 
BRANCH  11  12
HETATM   12  N4  UNL     1      -3.888  23.438  29.239  1.00  0.00    -0.219 N 
ATOM     13  H4  UNL     1      -3.348  22.874  29.896  1.00  0.00     0.178 HD
BRANCH  12  14
HETATM   14  C6  UNL     1      -3.662  23.284  27.967  1.00  0.00     0.707 A 
HETATM   15  N5  UNL     1      -3.766  22.055  27.430  1.00  0.00    -0.021 N 
HETATM   16  C7  UNL     1      -3.549  21.815  26.124  1.00  0.00     0.713 A 
ATOM     17  H5  UNL     1      -4.020  21.276  28.036  1.00  0.00     0.203 HD
HETATM   18  N11 UNL     1      -3.213  22.890  25.355  1.00  0.00    -0.021 N 
HETATM   19  C14 UNL     1      -3.097  24.130  25.844  1.00  0.00     0.709 A 
ATOM     20  H11 UNL     1      -3.041  22.742  24.360  1.00  0.00     0.203 HD
HETATM   21  N14 UNL     1      -3.329  24.319  27.179  1.00  0.00    -0.021 N 
ATOM     22  H14 UNL     1      -3.249  25.255  27.579  1.00  0.00     0.203 HD
BRANCH  16  23
HETATM   23  N6  UNL     1      -3.642  20.561  25.509  1.00  0.00    -0.168 N 
ATOM     24  H6  UNL     1      -4.548  20.252  25.155  1.00  0.00     0.186 HD
BRANCH  23  25
HETATM   25  C8  UNL     1      -2.605  19.769  25.371  1.00  0.00     0.180 A 
HETATM   26  N7  UNL     1      -1.962  19.439  24.250  1.00  0.00    -0.279 N 
HETATM   27  N8  UNL     1      -0.972  18.652  24.323  1.00  0.00    -0.296 N 
ATOM     28  H7  UNL     1      -2.261  19.815  23.350  1.00  0.00     0.189 HD
HETATM   29  C9  UNL     1      -0.582  18.163  25.490  1.00  0.00     0.075 A 
ATOM     30  H8  UNL     1      -0.471  18.391  23.474  1.00  0.00     0.187 HD
HETATM   31  S2  UNL     1      -1.714  18.885  26.548  1.00  0.00    -0.037 SA
BRANCH  29  32
HETATM   32  C10 UNL     1       0.546  17.229  25.808  1.00  0.00     0.124 C 
BRANCH  32  33
HETATM   33  C11 UNL     1       0.402  16.714  27.236  1.00  0.00     0.024 A 
HETATM   34  C12 UNL     1      -0.619  15.845  27.540  1.00  0.00     0.078 A 
HETATM   35  S1  UNL     1      -0.364  15.564  29.204  1.00  0.00    -0.064 SA
HETATM   36  C13 UNL     1       1.005  16.552  29.416  1.00  0.00     0.142 A 
HETATM   37  N10 UNL     1       1.207  17.055  28.197  1.00  0.00    -0.340 N 
ATOM     38  H10 UNL     1       1.980  17.697  28.024  1.00  0.00     0.168 HD
BRANCH  36  39
HETATM   39  N9  UNL     1       1.714  16.784  30.502  1.00  0.00    -0.380 N 
ATOM     40  H92 UNL     1       1.843  16.163  31.300  1.00  0.00     0.158 HD
ATOM     41  H91 UNL     1       2.261  17.606  30.758  1.00  0.00     0.158 HD
ENDBRANCH  36  39
ENDBRANCH  32  33
ENDBRANCH  29  32
ENDBRANCH  23  25
ENDBRANCH  16  23
BRANCH  19  42
HETATM   42  N12 UNL     1      -2.747  25.254  25.051  1.00  0.00    -0.217 N 
HETATM   43  C15 UNL     1      -2.839  25.149  23.602  1.00  0.00     0.143 C 
HETATM   44  C16 UNL     1      -1.580  25.630  22.923  1.00  0.00     0.053 C 
HETATM   45  C17 UNL     1      -0.939  26.799  23.579  1.00  0.00     0.186 C 
HETATM   46  C18 UNL     1      -0.856  26.691  25.085  1.00  0.00     0.053 C 
HETATM   47  C19 UNL     1      -2.302  26.507  25.569  1.00  0.00     0.143 C 
BRANCH  45  48
HETATM   48  N13 UNL     1       0.444  26.879  23.096  1.00  0.00    -0.075 N 
ATOM     49 3H13 UNL     1       1.084  27.267  23.788  1.00  0.00     0.274 HD
ATOM     50 2H13 UNL     1       0.886  25.964  23.003  1.00  0.00     0.274 HD
ATOM     51 1H13 UNL     1       0.438  27.406  22.222  1.00  0.00     0.274 HD
ENDBRANCH  45  48
ENDBRANCH  19  42
ENDBRANCH  12  14
ENDBRANCH  11  12
ENDBRANCH  10  11
TORSDOF 10
ENDMDL
MODEL 2
REMARK VINA RESULT: -10.649241753      2.088      2.735
REMARK  10 active torsions:
REMARK  status: ('A' for Active; 'I' for Inactive)
REMARK    1  A    between atoms: C4_10  and  C5_11 
REMARK    2  A    between atoms: C5_11  and  N4_12 
REMARK    3  A    between atoms: N4_12  and  C6_14 
REMARK    4  A    between atoms: C7_17  and  N6_18 
REMARK    5  A    between atoms: N6_18  and  C8_20 
REMARK    6  A    between atoms: C9_25  and  C10_26 
REMARK    7  A    between atoms: C10_26  and  C11_27 
REMARK    8  A    between atoms: C13_30  and  N9_31 
REMARK    9  A    between atoms: C14_39  and  N12_40 
REMARK   10  A    between atoms: C17_43  and  N13_44 
ROOT
HETATM    1  N1  UNL     1      -2.103  20.719  28.692  1.00  0.00    -0.190 NA
HETATM    2  C1  UNL     1      -2.796  21.522  29.141  1.00  0.00     0.120 C 
HETATM    3  C2  UNL     1      -3.671  22.500  29.687  1.00  0.00     0.142 A 
HETATM    4  N2  UNL     1      -3.371  23.308  30.725  1.00  0.00    -0.298 N 
ATOM      5  H2  UNL     1      -2.495  23.326  31.247  1.00  0.00     0.171 HD
HETATM    6  C3  UNL     1      -4.445  24.084  30.941  1.00  0.00     0.325 A 
HETATM    7  O1  UNL     1      -4.517  24.962  31.842  1.00  0.00    -0.247 OA
HETATM    8  N3  UNL     1      -5.407  23.751  30.033  1.00  0.00    -0.308 N 
ATOM      9  H3  UNL     1      -6.329  24.180  29.965  1.00  0.00     0.170 HD
HETATM   10  C4  UNL     1      -4.946  22.767  29.243  1.00  0.00     0.069 A 
ENDROOT
BRANCH  10  11
HETATM   11  C5  UNL     1      -5.647  22.109  28.135  1.00  0.00     0.198 C 
BRANCH  11  12
HETATM   12  N4  UNL     1      -5.733  22.905  26.952  1.00  0.00    -0.219 N 
ATOM     13  H4  UNL     1      -6.500  23.572  26.873  1.00  0.00     0.178 HD
BRANCH  12  14
HETATM   14  C6  UNL     1      -4.884  22.825  25.969  1.00  0.00     0.707 A 
HETATM   15  N5  UNL     1      -4.577  21.615  25.470  1.00  0.00    -0.021 N 
HETATM   16  C7  UNL     1      -3.709  21.449  24.456  1.00  0.00     0.713 A 
ATOM     17  H5  UNL     1      -5.018  20.791  25.876  1.00  0.00     0.203 HD
HETATM   18  N11 UNL     1      -3.144  22.581  23.946  1.00  0.00    -0.021 N 
HETATM   19  C14 UNL     1      -3.419  23.806  24.410  1.00  0.00     0.709 A 
ATOM     20  H11 UNL     1      -2.482  22.491  23.176  1.00  0.00     0.203 HD
HETATM   21  N14 UNL     1      -4.308  23.919  25.443  1.00  0.00    -0.021 N 
ATOM     22  H14 UNL     1      -4.537  24.840  25.816  1.00  0.00     0.203 HD
BRANCH  16  23
HETATM   23  N6  UNL     1      -3.350  20.218  23.895  1.00  0.00    -0.168 N 
ATOM     24  H6  UNL     1      -3.909  19.845  23.127  1.00  0.00     0.186 HD
BRANCH  23  25
HETATM   25  C8  UNL     1      -2.320  19.526  24.322  1.00  0.00     0.180 A 
HETATM   26  N7  UNL     1      -1.119  19.401  23.756  1.00  0.00    -0.279 N 
HETATM   27  N8  UNL     1      -0.247  18.681  24.328  1.00  0.00    -0.296 N 
ATOM     28  H7  UNL     1      -0.906  19.876  22.879  1.00  0.00     0.189 HD
HETATM   29  C9  UNL     1      -0.521  18.064  25.465  1.00  0.00     0.075 A 
ATOM     30  H8  UNL     1       0.676  18.576  23.906  1.00  0.00     0.187 HD
HETATM   31  S2  UNL     1      -2.138  18.551  25.728  1.00  0.00    -0.037 SA
BRANCH  29  32
HETATM   32  C10 UNL     1       0.345  17.174  26.306  1.00  0.00     0.124 C 
BRANCH  32  33
HETATM   33  C11 UNL     1      -0.141  17.196  27.751  1.00  0.00     0.024 A 
HETATM   34  C12 UNL     1       0.706  16.787  28.753  1.00  0.00     0.078 A 
HETATM   35  S1  UNL     1      -0.262  16.991  30.144  1.00  0.00    -0.064 SA
HETATM   36  C13 UNL     1      -1.667  17.578  29.384  1.00  0.00     0.142 A 
HETATM   37  N10 UNL     1      -1.330  17.591  28.093  1.00  0.00    -0.340 N 
ATOM     38  H10 UNL     1      -1.996  17.905  27.387  1.00  0.00     0.168 HD
BRANCH  36  39
HETATM   39  N9  UNL     1      -2.820  17.939  29.910  1.00  0.00    -0.380 N 
ATOM     40  H92 UNL     1      -3.736  17.527  29.732  1.00  0.00     0.158 HD
ATOM     41  H91 UNL     1      -3.025  18.679  30.581  1.00  0.00     0.158 HD
ENDBRANCH  36  39
ENDBRANCH  32  33
ENDBRANCH  29  32
ENDBRANCH  23  25
ENDBRANCH  16  23
BRANCH  19  42
HETATM   42  N12 UNL     1      -2.835  24.990  23.886  1.00  0.00    -0.217 N 
HETATM   43  C15 UNL     1      -2.523  25.051  22.466  1.00  0.00     0.143 C 
HETATM   44  C16 UNL     1      -1.114  25.531  22.221  1.00  0.00     0.053 C 
HETATM   45  C17 UNL     1      -0.653  26.583  23.164  1.00  0.00     0.186 C 
HETATM   46  C18 UNL     1      -0.995  26.304  24.611  1.00  0.00     0.053 C 
HETATM   47  C19 UNL     1      -2.522  26.150  24.656  1.00  0.00     0.143 C 
BRANCH  45  48
HETATM   48  N13 UNL     1       0.812  26.637  23.091  1.00  0.00    -0.075 N 
ATOM     49 3H13 UNL     1       1.160  26.675  22.133  1.00  0.00     0.274 HD
ATOM     50 2H13 UNL     1       1.192  27.529  23.408  1.00  0.00     0.274 HD
ATOM     51 1H13 UNL     1       1.179  25.841  23.614  1.00  0.00     0.274 HD
ENDBRANCH  45  48
ENDBRANCH  19  42
ENDBRANCH  12  14
ENDBRANCH  11  12
ENDBRANCH  10  11
TORSDOF 10
ENDMDL
MODEL 3
REMARK VINA RESULT: -10.535336462      2.699      5.950
REMARK  10 active torsions:
REMARK  status: ('A' for Active; 'I' for Inactive)
REMARK    1  A    between atoms: C4_10  and  C5_11 
REMARK    2  A    between atoms: C5_11  and  N4_12 
REMARK    3  A    between atoms: N4_12  and  C6_14 
REMARK    4  A    between atoms: C7_17  and  N6_18 
REMARK    5  A    between atoms: N6_18  and  C8_20 
REMARK    6  A    between atoms: C9_25  and  C10_26 
REMARK    7  A    between atoms: C10_26  and  C11_27 
REMARK    8  A    between atoms: C13_30  and  N9_31 
REMARK    9  A    between atoms: C14_39  and  N12_40 
REMARK   10  A    between atoms: C17_43  and  N13_44 
ROOT
HETATM    1  N1  UNL     1      -2.468  22.394  23.288  1.00  0.00    -0.190 NA
HETATM    2  C1  UNL     1      -2.060  23.365  22.821  1.00  0.00     0.120 C 
HETATM    3  C2  UNL     1      -1.547  24.568  22.264  1.00  0.00     0.142 A 
HETATM    4  N2  UNL     1      -1.318  24.773  20.951  1.00  0.00    -0.298 N 
ATOM      5  H2  UNL     1      -1.479  24.107  20.195  1.00  0.00     0.171 HD
HETATM    6  C3  UNL     1      -0.837  26.020  20.827  1.00  0.00     0.325 A 
HETATM    7  O1  UNL     1      -0.511  26.550  19.730  1.00  0.00    -0.247 OA
HETATM    8  N3  UNL     1      -0.770  26.582  22.068  1.00  0.00    -0.308 N 
ATOM      9  H3  UNL     1      -0.442  27.525  22.273  1.00  0.00     0.170 HD
HETATM   10  C4  UNL     1      -1.207  25.696  22.977  1.00  0.00     0.069 A 
ENDROOT
BRANCH  10  11
HETATM   11  C5  UNL     1      -1.306  25.881  24.429  1.00  0.00     0.198 C 
BRANCH  11  12
HETATM   12  N4  UNL     1      -2.627  26.180  24.884  1.00  0.00    -0.219 N 
ATOM     13  H4  UNL     1      -3.142  26.924  24.413  1.00  0.00     0.178 HD
BRANCH  12  14
HETATM   14  C6  UNL     1      -3.208  25.555  25.866  1.00  0.00     0.707 A 
HETATM   15  N5  UNL     1      -3.621  24.289  25.680  1.00  0.00    -0.021 N 
HETATM   16  C7  UNL     1      -4.228  23.576  26.645  1.00  0.00     0.713 A 
ATOM     17  H5  UNL     1      -3.467  23.852  24.772  1.00  0.00     0.203 HD
HETATM   18  N11 UNL     1      -4.411  24.204  27.842  1.00  0.00    -0.021 N 
HETATM   19  C14 UNL     1      -4.018  25.462  28.074  1.00  0.00     0.709 A 
ATOM     20  H11 UNL     1      -4.869  23.691  28.596  1.00  0.00     0.203 HD
HETATM   21  N14 UNL     1      -3.404  26.142  27.058  1.00  0.00    -0.021 N 
ATOM     22  H14 UNL     1      -3.093  27.102  27.207  1.00  0.00     0.203 HD
BRANCH  16  23
HETATM   23  N6  UNL     1      -4.680  22.258  26.511  1.00  0.00    -0.168 N 
ATOM     24  H6  UNL     1      -5.637  22.035  26.785  1.00  0.00     0.186 HD
BRANCH  23  25
HETATM   25  C8  UNL     1      -3.915  21.298  26.046  1.00  0.00     0.180 A 
HETATM   26  N7  UNL     1      -4.156  20.471  25.028  1.00  0.00    -0.279 N 
HETATM   27  N8  UNL     1      -3.284  19.602  24.728  1.00  0.00    -0.296 N 
ATOM     28  H7  UNL     1      -5.025  20.538  24.499  1.00  0.00     0.189 HD
HETATM   29  C9  UNL     1      -2.155  19.514  25.413  1.00  0.00     0.075 A 
ATOM     30  H8  UNL     1      -3.455  18.963  23.952  1.00  0.00     0.187 HD
HETATM   31  S2  UNL     1      -2.363  20.763  26.560  1.00  0.00    -0.037 SA
BRANCH  29  32
HETATM   32  C10 UNL     1      -0.999  18.575  25.237  1.00  0.00     0.124 C 
BRANCH  32  33
HETATM   33  C11 UNL     1      -0.789  17.770  26.515  1.00  0.00     0.024 A 
HETATM   34  C12 UNL     1       0.082  16.707  26.506  1.00  0.00     0.078 A 
HETATM   35  S1  UNL     1      -0.021  16.148  28.116  1.00  0.00    -0.064 SA
HETATM   36  C13 UNL     1      -1.148  17.281  28.700  1.00  0.00     0.142 A 
HETATM   37  N10 UNL     1      -1.396  18.040  27.631  1.00  0.00    -0.340 N 
ATOM     38  H10 UNL     1      -2.053  18.818  27.690  1.00  0.00     0.168 HD
BRANCH  36  39
HETATM   39  N9  UNL     1      -1.669  17.406  29.904  1.00  0.00    -0.380 N 
ATOM     40  H92 UNL     1      -2.291  16.752  30.378  1.00  0.00     0.158 HD
ATOM     41  H91 UNL     1      -1.560  18.156  30.585  1.00  0.00     0.158 HD
ENDBRANCH  36  39
ENDBRANCH  32  33
ENDBRANCH  29  32
ENDBRANCH  23  25
ENDBRANCH  16  23
BRANCH  19  42
HETATM   42  N12 UNL     1      -4.205  26.123  29.317  1.00  0.00    -0.217 N 
HETATM   43  C15 UNL     1      -3.906  27.544  29.409  1.00  0.00     0.143 C 
HETATM   44  C16 UNL     1      -3.030  27.858  30.597  1.00  0.00     0.053 C 
HETATM   45  C17 UNL     1      -3.323  27.045  31.805  1.00  0.00     0.186 C 
HETATM   46  C18 UNL     1      -3.521  25.572  31.523  1.00  0.00     0.053 C 
HETATM   47  C19 UNL     1      -4.672  25.493  30.509  1.00  0.00     0.143 C 
BRANCH  45  48
HETATM   48  N13 UNL     1      -2.163  27.140  32.700  1.00  0.00    -0.075 N 
ATOM     49 3H13 UNL     1      -1.358  27.582  32.258  1.00  0.00     0.274 HD
ATOM     50 2H13 UNL     1      -2.295  27.819  33.449  1.00  0.00     0.274 HD
ATOM     51 1H13 UNL     1      -1.961  26.202  33.046  1.00  0.00     0.274 HD
ENDBRANCH  45  48
ENDBRANCH  19  42
ENDBRANCH  12  14
ENDBRANCH  11  12
ENDBRANCH  10  11
TORSDOF 10
ENDMDL
MODEL 4
REMARK VINA RESULT: -10.442634343      2.667      6.210
REMARK  10 active torsions:
REMARK  status: ('A' for Active; 'I' for Inactive)
REMARK    1  A    between atoms: C4_10  and  C5_11 
REMARK    2  A    between atoms: C5_11  and  N4_12 
REMARK    3  A    between atoms: N4_12  and  C6_14 
REMARK    4  A    between atoms: C7_17  and  N6_18 
REMARK    5  A    between atoms: N6_18  and  C8_20 
REMARK    6  A    between atoms: C9_25  and  C10_26 
REMARK    7  A    between atoms: C10_26  and  C11_27 
REMARK    8  A    between atoms: C13_30  and  N9_31 
REMARK    9  A    between atoms: C14_39  and  N12_40 
REMARK   10  A    between atoms: C17_43  and  N13_44 
ROOT
HETATM    1  N1  UNL     1      -4.346  24.036  24.804  1.00  0.00    -0.190 NA
HETATM    2  C1  UNL     1      -3.458  24.637  24.384  1.00  0.00     0.120 C 
HETATM    3  C2  UNL     1      -2.352  25.379  23.888  1.00  0.00     0.142 A 
HETATM    4  N2  UNL     1      -1.950  25.395  22.600  1.00  0.00    -0.298 N 
ATOM      5  H2  UNL     1      -2.377  24.888  21.824  1.00  0.00     0.171 HD
HETATM    6  C3  UNL     1      -0.883  26.205  22.532  1.00  0.00     0.325 A 
HETATM    7  O1  UNL     1      -0.246  26.454  21.473  1.00  0.00    -0.247 OA
HETATM    8  N3  UNL     1      -0.627  26.687  23.782  1.00  0.00    -0.308 N 
ATOM      9  H3  UNL     1       0.129  27.326  24.026  1.00  0.00     0.170 HD
HETATM   10  C4  UNL     1      -1.529  26.186  24.641  1.00  0.00     0.069 A 
ENDROOT
BRANCH  10  11
HETATM   11  C5  UNL     1      -1.627  26.439  26.083  1.00  0.00     0.198 C 
BRANCH  11  12
HETATM   12  N4  UNL     1      -2.941  26.793  26.519  1.00  0.00    -0.219 N 
ATOM     13  H4  UNL     1      -3.422  27.551  26.035  1.00  0.00     0.178 HD
BRANCH  12  14
HETATM   14  C6  UNL     1      -3.557  26.199  27.499  1.00  0.00     0.707 A 
HETATM   15  N5  UNL     1      -3.603  24.854  27.521  1.00  0.00    -0.021 N 
HETATM   16  C7  UNL     1      -4.219  24.167  28.499  1.00  0.00     0.713 A 
ATOM     17  H5  UNL     1      -3.153  24.337  26.767  1.00  0.00     0.203 HD
HETATM   18  N11 UNL     1      -4.807  24.905  29.485  1.00  0.00    -0.021 N 
HETATM   19  C14 UNL     1      -4.787  26.243  29.505  1.00  0.00     0.709 A 
ATOM     20  H11 UNL     1      -5.283  24.415  30.242  1.00  0.00     0.203 HD
HETATM   21  N14 UNL     1      -4.146  26.893  28.486  1.00  0.00    -0.021 N 
ATOM     22  H14 UNL     1      -4.115  27.913  28.477  1.00  0.00     0.203 HD
BRANCH  16  23
HETATM   23  N6  UNL     1      -4.301  22.772  28.576  1.00  0.00    -0.168 N 
ATOM     24  H6  UNL     1      -4.698  22.348  29.415  1.00  0.00     0.186 HD
BRANCH  23  25
HETATM   25  C8  UNL     1      -3.883  21.990  27.608  1.00  0.00     0.180 A 
HETATM   26  N7  UNL     1      -4.574  21.530  26.564  1.00  0.00    -0.279 N 
HETATM   27  N8  UNL     1      -3.989  20.780  25.728  1.00  0.00    -0.296 N 
ATOM     28  H7  UNL     1      -5.556  21.778  26.441  1.00  0.00     0.189 HD
HETATM   29  C9  UNL     1      -2.715  20.457  25.886  1.00  0.00     0.075 A 
ATOM     30  H8  UNL     1      -4.504  20.420  24.925  1.00  0.00     0.187 HD
HETATM   31  S2  UNL     1      -2.338  21.288  27.331  1.00  0.00    -0.037 SA
BRANCH  29  32
HETATM   32  C10 UNL     1      -1.832  19.596  25.034  1.00  0.00     0.124 C 
BRANCH  32  33
HETATM   33  C11 UNL     1      -1.255  18.460  25.871  1.00  0.00     0.024 A 
HETATM   34  C12 UNL     1      -0.104  17.834  25.456  1.00  0.00     0.078 A 
HETATM   35  S1  UNL     1       0.134  16.674  26.685  1.00  0.00    -0.064 SA
HETATM   36  C13 UNL     1      -1.223  17.044  27.642  1.00  0.00     0.142 A 
HETATM   37  N10 UNL     1      -1.800  18.045  26.974  1.00  0.00    -0.340 N 
ATOM     38  H10 UNL     1      -2.655  18.476  27.325  1.00  0.00     0.168 HD
BRANCH  36  39
HETATM   39  N9  UNL     1      -1.632  16.498  28.769  1.00  0.00    -0.380 N 
ATOM     40  H92 UNL     1      -1.064  16.006  29.458  1.00  0.00     0.158 HD
ATOM     41  H91 UNL     1      -2.569  16.456  29.170  1.00  0.00     0.158 HD
ENDBRANCH  36  39
ENDBRANCH  32  33
ENDBRANCH  29  32
ENDBRANCH  23  25
ENDBRANCH  16  23
BRANCH  19  42
HETATM   42  N12 UNL     1      -5.396  27.019  30.527  1.00  0.00    -0.217 N 
HETATM   43  C15 UNL     1      -4.614  28.055  31.184  1.00  0.00     0.143 C 
HETATM   44  C16 UNL     1      -4.707  27.961  32.687  1.00  0.00     0.053 C 
HETATM   45  C17 UNL     1      -6.045  27.558  33.193  1.00  0.00     0.186 C 
HETATM   46  C18 UNL     1      -6.667  26.405  32.436  1.00  0.00     0.053 C 
HETATM   47  C19 UNL     1      -6.743  26.861  30.972  1.00  0.00     0.143 C 
BRANCH  45  48
HETATM   48  N13 UNL     1      -5.879  27.099  34.577  1.00  0.00    -0.075 N 
ATOM     49 3H13 UNL     1      -5.233  26.315  34.660  1.00  0.00     0.274 HD
ATOM     50 2H13 UNL     1      -5.361  27.762  35.155  1.00  0.00     0.274 HD
ATOM     51 1H13 UNL     1      -6.806  26.890  34.948  1.00  0.00     0.274 HD
ENDBRANCH  45  48
ENDBRANCH  19  42
ENDBRANCH  12  14
ENDBRANCH  11  12
ENDBRANCH  10  11
TORSDOF 10
ENDMDL
MODEL 5
REMARK VINA RESULT: -10.311981260      2.243      3.512
REMARK  10 active torsions:
REMARK  status: ('A' for Active; 'I' for Inactive)
REMARK    1  A    between atoms: C4_10  and  C5_11 
REMARK    2  A    between atoms: C5_11  and  N4_12 
REMARK    3  A    between atoms: N4_12  and  C6_14 
REMARK    4  A    between atoms: C7_17  and  N6_18 
REMARK    5  A    between atoms: N6_18  and  C8_20 
REMARK    6  A    between atoms: C9_25  and  C10_26 
REMARK    7  A    between atoms: C10_26  and  C11_27 
REMARK    8  A    between atoms: C13_30  and  N9_31 
REMARK    9  A    between atoms: C14_39  and  N12_40 
REMARK   10  A    between atoms: C17_43  and  N13_44 
ROOT
HETATM    1  N1  UNL     1      -1.105  19.769  31.813  1.00  0.00    -0.190 NA
HETATM    2  C1  UNL     1      -1.693  20.759  31.797  1.00  0.00     0.120 C 
HETATM    3  C2  UNL     1      -2.437  21.970  31.767  1.00  0.00     0.142 A 
HETATM    4  N2  UNL     1      -2.281  22.992  32.633  1.00  0.00    -0.298 N 
ATOM      5  H2  UNL     1      -1.622  23.035  33.411  1.00  0.00     0.171 HD
HETATM    6  C3  UNL     1      -3.158  23.944  32.278  1.00  0.00     0.325 A 
HETATM    7  O1  UNL     1      -3.288  25.047  32.874  1.00  0.00    -0.247 OA
HETATM    8  N3  UNL     1      -3.855  23.504  31.192  1.00  0.00    -0.308 N 
ATOM      9  H3  UNL     1      -4.588  24.025  30.710  1.00  0.00     0.170 HD
HETATM   10  C4  UNL     1      -3.423  22.278  30.857  1.00  0.00     0.069 A 
ENDROOT
BRANCH  10  11
HETATM   11  C5  UNL     1      -3.895  21.435  29.753  1.00  0.00     0.198 C 
BRANCH  11  12
HETATM   12  N4  UNL     1      -4.702  22.130  28.800  1.00  0.00    -0.219 N 
ATOM     13  H4  UNL     1      -5.711  22.149  28.945  1.00  0.00     0.178 HD
BRANCH  12  14
HETATM   14  C6  UNL     1      -4.218  22.741  27.758  1.00  0.00     0.707 A 
HETATM   15  N5  UNL     1      -3.854  22.013  26.687  1.00  0.00    -0.021 N 
HETATM   16  C7  UNL     1      -3.345  22.569  25.573  1.00  0.00     0.713 A 
ATOM     17  H5  UNL     1      -3.967  21.000  26.721  1.00  0.00     0.203 HD
HETATM   18  N11 UNL     1      -3.213  23.927  25.576  1.00  0.00    -0.021 N 
HETATM   19  C14 UNL     1      -3.560  24.691  26.617  1.00  0.00     0.709 A 
ATOM     20  H11 UNL     1      -2.830  24.380  24.746  1.00  0.00     0.203 HD
HETATM   21  N14 UNL     1      -4.073  24.075  27.726  1.00  0.00    -0.021 N 
ATOM     22  H14 UNL     1      -4.347  24.634  28.534  1.00  0.00     0.203 HD
BRANCH  16  23
HETATM   23  N6  UNL     1      -2.949  21.866  24.429  1.00  0.00    -0.168 N 
ATOM     24  H6  UNL     1      -3.211  22.230  23.512  1.00  0.00     0.186 HD
BRANCH  23  25
HETATM   25  C8  UNL     1      -2.254  20.755  24.494  1.00  0.00     0.180 A 
HETATM   26  N7  UNL     1      -1.997  19.884  23.517  1.00  0.00    -0.279 N 
HETATM   27  N8  UNL     1      -1.299  18.860  23.780  1.00  0.00    -0.296 N 
ATOM     28  H7  UNL     1      -2.356  20.039  22.575  1.00  0.00     0.189 HD
HETATM   29  C9  UNL     1      -0.832  18.656  25.002  1.00  0.00     0.075 A 
ATOM     30  H8  UNL     1      -1.095  18.186  23.043  1.00  0.00     0.187 HD
HETATM   31  S2  UNL     1      -1.438  20.027  25.823  1.00  0.00    -0.037 SA
BRANCH  29  32
HETATM   32  C10 UNL     1       0.003  17.531  25.533  1.00  0.00     0.124 C 
BRANCH  32  33
HETATM   33  C11 UNL     1      -0.269  17.343  27.021  1.00  0.00     0.024 A 
HETATM   34  C12 UNL     1       0.700  16.782  27.818  1.00  0.00     0.078 A 
HETATM   35  S1  UNL     1      -0.051  16.787  29.350  1.00  0.00    -0.064 SA
HETATM   36  C13 UNL     1      -1.532  17.492  28.898  1.00  0.00     0.142 A 
HETATM   37  N10 UNL     1      -1.384  17.692  27.588  1.00  0.00    -0.340 N 
ATOM     38  H10 UNL     1      -2.135  18.114  27.040  1.00  0.00     0.168 HD
BRANCH  36  39
HETATM   39  N9  UNL     1      -2.586  17.781  29.634  1.00  0.00    -0.380 N 
ATOM     40  H92 UNL     1      -2.910  18.708  29.911  1.00  0.00     0.158 HD
ATOM     41  H91 UNL     1      -3.270  17.159  30.064  1.00  0.00     0.158 HD
ENDBRANCH  36  39
ENDBRANCH  32  33
ENDBRANCH  29  32
ENDBRANCH  23  25
ENDBRANCH  16  23
BRANCH  19  42
HETATM   42  N12 UNL     1      -3.425  26.105  26.629  1.00  0.00    -0.217 N 
HETATM   43  C15 UNL     1      -2.297  26.709  25.936  1.00  0.00     0.143 C 
HETATM   44  C16 UNL     1      -1.574  27.708  26.804  1.00  0.00     0.053 C 
HETATM   45  C17 UNL     1      -2.461  28.506  27.689  1.00  0.00     0.186 C 
HETATM   46  C18 UNL     1      -3.523  27.691  28.394  1.00  0.00     0.053 C 
HETATM   47  C19 UNL     1      -4.325  27.001  27.280  1.00  0.00     0.143 C 
BRANCH  45  48
HETATM   48  N13 UNL     1      -1.628  29.095  28.744  1.00  0.00    -0.075 N 
ATOM     49 3H13 UNL     1      -1.289  28.405  29.413  1.00  0.00     0.274 HD
ATOM     50 2H13 UNL     1      -0.719  29.409  28.402  1.00  0.00     0.274 HD
ATOM     51 1H13 UNL     1      -2.165  29.843  29.183  1.00  0.00     0.274 HD
ENDBRANCH  45  48
ENDBRANCH  19  42
ENDBRANCH  12  14
ENDBRANCH  11  12
ENDBRANCH  10  11
TORSDOF 10
ENDMDL
