MODEL 1
REMARK VINA RESULT: -9.904756683      0.000      0.000
REMARK  2 active torsions:
REMARK  status: ('A' for Active; 'I' for Inactive)
REMARK    1  A    between atoms: S1_2  and  N1_5 
REMARK    2  A    between atoms: N1_5  and  N2_7 
ROOT
HETATM    1  N2  UNL     1      14.687   7.799  13.192  1.00  0.00    -0.218 NA
HETATM    2  C2  UNL     1      13.789   8.200  12.141  1.00  0.00     0.142 C 
HETATM    3  C3  UNL     1      13.285   7.048  11.318  1.00  0.00     0.248 C 
HETATM    4  N3  UNL     1      13.279   7.383   9.910  1.00  0.00    -0.072 N 
ATOM      5  H31 UNL     1      14.089   6.986   9.435  1.00  0.00     0.277 HD
ATOM      6  H32 UNL     1      13.475   8.374   9.768  1.00  0.00     0.277 HD
HETATM    7  C4  UNL     1      12.057   6.999   9.255  1.00  0.00     0.259 C 
HETATM    8  C5  UNL     1      11.668   8.043   8.233  1.00  0.00     0.259 C 
HETATM    9  N4  UNL     1      10.780   9.034   8.776  1.00  0.00    -0.074 N 
ATOM     10  H41 UNL     1      10.038   8.603   9.326  1.00  0.00     0.277 HD
ATOM     11  H42 UNL     1      10.212   9.461   8.044  1.00  0.00     0.277 HD
HETATM   12  C6  UNL     1      11.487  10.042   9.545  1.00  0.00     0.232 C 
HETATM   13  C7  UNL     1      11.176  11.438   9.085  1.00  0.00     0.027 C 
HETATM   14  C8  UNL     1       9.878  11.963   9.618  1.00  0.00     0.002 C 
HETATM   15  C9  UNL     1       9.908  12.284  11.078  1.00  0.00     0.002 C 
HETATM   16  C10 UNL     1      11.011  13.214  11.470  1.00  0.00     0.020 C 
HETATM   17  C11 UNL     1      11.971  12.590  12.447  1.00  0.00     0.122 C 
HETATM   18  N5  UNL     1      11.779  13.119  13.795  1.00  0.00    -0.359 N 
ATOM     19  H5  UNL     1      11.129  13.887  13.963  1.00  0.00     0.162 HD
HETATM   20  C12 UNL     1      12.508  12.549  14.862  1.00  0.00     0.241 C 
HETATM   21  O3  UNL     1      12.765  13.265  15.865  1.00  0.00    -0.271 OA
HETATM   22  C13 UNL     1      12.996  11.145  14.879  1.00  0.00     0.270 C 
HETATM   23  O4  UNL     1      14.383  11.070  14.763  1.00  0.00    -0.381 OA
HETATM   24  C14 UNL     1      14.784  10.185  13.764  1.00  0.00     0.184 C 
HETATM   25  C15 UNL     1      14.723   8.767  14.259  1.00  0.00     0.140 C 
ENDROOT
BRANCH   1  26
HETATM   26  N1  UNL     1      14.395   6.559  13.726  1.00  0.00    -0.247 N 
ATOM     27  H1  UNL     1      13.480   6.314  14.107  1.00  0.00     0.194 HD
BRANCH  26  28
HETATM   28  S1  UNL     1      15.727   5.466  13.684  1.00  0.00     0.236 S 
HETATM   29  C1  UNL     1      15.221   3.819  14.140  1.00  0.00     0.187 C 
HETATM   30  O1  UNL     1      16.815   5.879  14.642  1.00  0.00    -0.205 OA
HETATM   31  O2  UNL     1      16.262   5.407  12.269  1.00  0.00    -0.205 OA
ENDBRANCH  26  28
ENDBRANCH   1  26
TORSDOF 2
ENDMDL
MODEL 2
REMARK VINA RESULT: -8.584525877      1.908      2.472
REMARK  2 active torsions:
REMARK  status: ('A' for Active; 'I' for Inactive)
REMARK    1  A    between atoms: S1_2  and  N1_5 
REMARK    2  A    between atoms: N1_5  and  N2_7 
ROOT
HETATM    1  N2  UNL     1      14.238   6.574  12.096  1.00  0.00    -0.218 NA
HETATM    2  C2  UNL     1      13.442   7.641  11.546  1.00  0.00     0.142 C 
HETATM    3  C3  UNL     1      12.510   7.187  10.459  1.00  0.00     0.248 C 
HETATM    4  N3  UNL     1      12.497   8.132   9.362  1.00  0.00    -0.072 N 
ATOM      5  H31 UNL     1      13.081   7.808   8.592  1.00  0.00     0.277 HD
ATOM      6  H32 UNL     1      13.004   8.983   9.606  1.00  0.00     0.277 HD
HETATM    7  C4  UNL     1      11.166   8.436   8.909  1.00  0.00     0.259 C 
HETATM    8  C5  UNL     1      11.068   9.897   8.536  1.00  0.00     0.259 C 
HETATM    9  N4  UNL     1      10.618  10.712   9.631  1.00  0.00    -0.074 N 
ATOM     10  H41 UNL     1       9.824  10.285  10.107  1.00  0.00     0.277 HD
ATOM     11  H42 UNL     1      10.168  11.564   9.297  1.00  0.00     0.277 HD
HETATM   12  C6  UNL     1      11.688  11.016  10.565  1.00  0.00     0.232 C 
HETATM   13  C7  UNL     1      11.830  12.490  10.814  1.00  0.00     0.027 C 
HETATM   14  C8  UNL     1      10.837  13.024  11.802  1.00  0.00     0.002 C 
HETATM   15  C9  UNL     1      11.099  12.602  13.211  1.00  0.00     0.002 C 
HETATM   16  C10 UNL     1      12.482  12.913  13.690  1.00  0.00     0.020 C 
HETATM   17  C11 UNL     1      13.253  11.677  14.066  1.00  0.00     0.122 C 
HETATM   18  N5  UNL     1      13.367  11.541  15.516  1.00  0.00    -0.359 N 
ATOM     19  H5  UNL     1      13.033  12.280  16.134  1.00  0.00     0.162 HD
HETATM   20  C12 UNL     1      13.949  10.369  16.048  1.00  0.00     0.241 C 
HETATM   21  O3  UNL     1      14.518  10.435  17.168  1.00  0.00    -0.271 OA
HETATM   22  C13 UNL     1      13.931   9.049  15.365  1.00  0.00     0.270 C 
HETATM   23  O4  UNL     1      15.196   8.676  14.911  1.00  0.00    -0.381 OA
HETATM   24  C14 UNL     1      15.187   8.294  13.571  1.00  0.00     0.184 C 
HETATM   25  C15 UNL     1      14.691   6.880  13.429  1.00  0.00     0.140 C 
ENDROOT
BRANCH   1  26
HETATM   26  N1  UNL     1      13.589   5.355  12.115  1.00  0.00    -0.247 N 
ATOM     27  H1  UNL     1      12.631   5.235  12.444  1.00  0.00     0.194 HD
BRANCH  26  28
HETATM   28  S1  UNL     1      14.559   4.056  11.528  1.00  0.00     0.236 S 
HETATM   29  C1  UNL     1      14.209   3.718   9.814  1.00  0.00     0.187 C 
HETATM   30  O1  UNL     1      14.306   2.783  12.295  1.00  0.00    -0.205 OA
HETATM   31  O2  UNL     1      16.016   4.454  11.630  1.00  0.00    -0.205 OA
ENDBRANCH  26  28
ENDBRANCH   1  26
TORSDOF 2
ENDMDL
MODEL 3
REMARK VINA RESULT: -8.570998849      2.382      3.348
REMARK  2 active torsions:
REMARK  status: ('A' for Active; 'I' for Inactive)
REMARK    1  A    between atoms: S1_2  and  N1_5 
REMARK    2  A    between atoms: N1_5  and  N2_7 
ROOT
HETATM    1  N2  UNL     1      13.385   6.885  10.901  1.00  0.00    -0.218 NA
HETATM    2  C2  UNL     1      12.629   8.087  10.665  1.00  0.00     0.142 C 
HETATM    3  C3  UNL     1      11.546   7.916   9.638  1.00  0.00     0.248 C 
HETATM    4  N3  UNL     1      11.493   9.057   8.748  1.00  0.00    -0.072 N 
ATOM      5  H31 UNL     1      11.958   8.853   7.864  1.00  0.00     0.277 HD
ATOM      6  H32 UNL     1      12.096   9.809   9.082  1.00  0.00     0.277 HD
HETATM    7  C4  UNL     1      10.152   9.528   8.530  1.00  0.00     0.259 C 
HETATM    8  C5  UNL     1      10.140  11.037   8.453  1.00  0.00     0.259 C 
HETATM    9  N4  UNL     1       9.886  11.647   9.729  1.00  0.00    -0.074 N 
ATOM     10  H41 UNL     1       9.115  11.186  10.212  1.00  0.00     0.277 HD
ATOM     11  H42 UNL     1       9.477  12.575   9.619  1.00  0.00     0.277 HD
HETATM   12  C6  UNL     1      11.075  11.693  10.561  1.00  0.00     0.232 C 
HETATM   13  C7  UNL     1      11.370  13.078  11.063  1.00  0.00     0.027 C 
HETATM   14  C8  UNL     1      10.543  13.469  12.250  1.00  0.00     0.002 C 
HETATM   15  C9  UNL     1      10.922  12.763  13.511  1.00  0.00     0.002 C 
HETATM   16  C10 UNL     1      12.370  12.885  13.862  1.00  0.00     0.020 C 
HETATM   17  C11 UNL     1      13.069  11.553  13.900  1.00  0.00     0.122 C 
HETATM   18  N5  UNL     1      13.331  11.128  15.273  1.00  0.00    -0.359 N 
ATOM     19  H5  UNL     1      13.132  11.752  16.056  1.00  0.00     0.162 HD
HETATM   20  C12 UNL     1      13.864   9.840  15.499  1.00  0.00     0.241 C 
HETATM   21  O3  UNL     1      14.558   9.649  16.532  1.00  0.00    -0.271 OA
HETATM   22  C13 UNL     1      13.657   8.684  14.588  1.00  0.00     0.270 C 
HETATM   23  O4  UNL     1      14.827   8.328  13.918  1.00  0.00    -0.381 OA
HETATM   24  C14 UNL     1      14.636   8.218  12.542  1.00  0.00     0.184 C 
HETATM   25  C15 UNL     1      14.008   6.894  12.201  1.00  0.00     0.140 C 
ENDROOT
BRANCH   1  26
HETATM   26  N1  UNL     1      12.639   5.729  10.773  1.00  0.00    -0.247 N 
ATOM     27  H1  UNL     1      11.771   5.562  11.283  1.00  0.00     0.194 HD
BRANCH  26  28
HETATM   28  S1  UNL     1      13.321   4.596   9.667  1.00  0.00     0.236 S 
HETATM   29  C1  UNL     1      14.236   3.331  10.525  1.00  0.00     0.187 C 
HETATM   30  O1  UNL     1      14.275   5.262   8.708  1.00  0.00    -0.205 OA
HETATM   31  O2  UNL     1      12.198   3.919   8.912  1.00  0.00    -0.205 OA
ENDBRANCH  26  28
ENDBRANCH   1  26
TORSDOF 2
ENDMDL
MODEL 4
REMARK VINA RESULT: -8.568448922      2.512      3.941
REMARK  2 active torsions:
REMARK  status: ('A' for Active; 'I' for Inactive)
REMARK    1  A    between atoms: S1_2  and  N1_5 
REMARK    2  A    between atoms: N1_5  and  N2_7 
ROOT
HETATM    1  N2  UNL     1      14.039  10.620  14.689  1.00  0.00    -0.218 NA
HETATM    2  C2  UNL     1      13.783   9.879  13.482  1.00  0.00     0.142 C 
HETATM    3  C3  UNL     1      14.212   8.441  13.565  1.00  0.00     0.248 C 
HETATM    4  N3  UNL     1      14.862   8.025  12.340  1.00  0.00    -0.072 N 
ATOM      5  H31 UNL     1      15.876   8.029  12.444  1.00  0.00     0.277 HD
ATOM      6  H32 UNL     1      14.768   8.737  11.616  1.00  0.00     0.277 HD
HETATM    7  C4  UNL     1      14.394   6.748  11.872  1.00  0.00     0.259 C 
HETATM    8  C5  UNL     1      14.308   6.750  10.364  1.00  0.00     0.259 C 
HETATM    9  N4  UNL     1      13.003   7.126   9.892  1.00  0.00    -0.074 N 
ATOM     10  H41 UNL     1      12.270   6.646  10.413  1.00  0.00     0.277 HD
ATOM     11  H42 UNL     1      12.821   6.742   8.964  1.00  0.00     0.277 HD
HETATM   12  C6  UNL     1      12.806   8.564   9.911  1.00  0.00     0.232 C 
HETATM   13  C7  UNL     1      12.361   9.101   8.581  1.00  0.00     0.027 C 
HETATM   14  C8  UNL     1      10.895   8.919   8.328  1.00  0.00     0.002 C 
HETATM   15  C9  UNL     1      10.024   9.809   9.153  1.00  0.00     0.002 C 
HETATM   16  C10 UNL     1      10.363  11.261   9.043  1.00  0.00     0.020 C 
HETATM   17  C11 UNL     1      10.781  11.857  10.360  1.00  0.00     0.122 C 
HETATM   18  N5  UNL     1       9.729  12.703  10.919  1.00  0.00    -0.359 N 
ATOM     19  H5  UNL     1       8.885  12.903  10.383  1.00  0.00     0.162 HD
HETATM   20  C12 UNL     1       9.901  13.239  12.215  1.00  0.00     0.241 C 
HETATM   21  O3  UNL     1       9.324  14.321  12.500  1.00  0.00    -0.271 OA
HETATM   22  C13 UNL     1      10.726  12.602  13.274  1.00  0.00     0.270 C 
HETATM   23  O4  UNL     1      11.889  13.325  13.540  1.00  0.00    -0.381 OA
HETATM   24  C14 UNL     1      13.029  12.524  13.511  1.00  0.00     0.184 C 
HETATM   25  C15 UNL     1      13.174  11.767  14.803  1.00  0.00     0.140 C 
ENDROOT
BRANCH   1  26
HETATM   26  N1  UNL     1      13.926   9.862  15.838  1.00  0.00    -0.247 N 
ATOM     27  H1  UNL     1      13.083   9.345  16.088  1.00  0.00     0.194 HD
BRANCH  26  28
HETATM   28  S1  UNL     1      15.351   9.876  16.808  1.00  0.00     0.236 S 
HETATM   29  C1  UNL     1      15.845  11.543  17.198  1.00  0.00     0.187 C 
HETATM   30  O1  UNL     1      16.510   9.222  16.100  1.00  0.00    -0.205 OA
HETATM   31  O2  UNL     1      15.058   9.166  18.112  1.00  0.00    -0.205 OA
ENDBRANCH  26  28
ENDBRANCH   1  26
TORSDOF 2
ENDMDL
MODEL 5
REMARK VINA RESULT: -8.447619335      1.746      2.490
REMARK  2 active torsions:
REMARK  status: ('A' for Active; 'I' for Inactive)
REMARK    1  A    between atoms: S1_2  and  N1_5 
REMARK    2  A    between atoms: N1_5  and  N2_7 
ROOT
HETATM    1  N2  UNL     1      14.232   8.102  11.082  1.00  0.00    -0.218 NA
HETATM    2  C2  UNL     1      13.167   9.040  10.840  1.00  0.00     0.142 C 
HETATM    3  C3  UNL     1      12.174   8.560   9.820  1.00  0.00     0.248 C 
HETATM    4  N3  UNL     1      11.799   9.631   8.921  1.00  0.00    -0.072 N 
ATOM      5  H31 UNL     1      12.301   9.559   8.036  1.00  0.00     0.277 HD
ATOM      6  H32 UNL     1      12.165  10.526   9.245  1.00  0.00     0.277 HD
HETATM    7  C4  UNL     1      10.379   9.702   8.706  1.00  0.00     0.259 C 
HETATM    8  C5  UNL     1       9.940  11.145   8.616  1.00  0.00     0.259 C 
HETATM    9  N4  UNL     1       9.528  11.671   9.888  1.00  0.00    -0.074 N 
ATOM     10  H41 UNL     1       8.919  11.015  10.379  1.00  0.00     0.277 HD
ATOM     11  H42 UNL     1       8.873  12.444   9.773  1.00  0.00     0.277 HD
HETATM   12  C6  UNL     1      10.657  12.058  10.714  1.00  0.00     0.232 C 
HETATM   13  C7  UNL     1      10.550  13.475  11.203  1.00  0.00     0.027 C 
HETATM   14  C8  UNL     1       9.649  13.627  12.391  1.00  0.00     0.002 C 
HETATM   15  C9  UNL     1      10.215  13.069  13.656  1.00  0.00     0.002 C 
HETATM   16  C10 UNL     1      11.571  13.598  13.999  1.00  0.00     0.020 C 
HETATM   17  C11 UNL     1      12.617  12.518  14.044  1.00  0.00     0.122 C 
HETATM   18  N5  UNL     1      12.992  12.197  15.420  1.00  0.00    -0.359 N 
ATOM     19  H5  UNL     1      12.627  12.746  16.198  1.00  0.00     0.162 HD
HETATM   20  C12 UNL     1      13.868  11.114  15.653  1.00  0.00     0.241 C 
HETATM   21  O3  UNL     1      14.589  11.136  16.684  1.00  0.00    -0.271 OA
HETATM   22  C13 UNL     1      13.994   9.939  14.753  1.00  0.00     0.270 C 
HETATM   23  O4  UNL     1      15.215   9.921  14.080  1.00  0.00    -0.381 OA
HETATM   24  C14 UNL     1      15.060   9.749  12.705  1.00  0.00     0.184 C 
HETATM   25  C15 UNL     1      14.830   8.299  12.378  1.00  0.00     0.140 C 
ENDROOT
BRANCH   1  26
HETATM   26  N1  UNL     1      13.844   6.781  10.967  1.00  0.00    -0.247 N 
ATOM     27  H1  UNL     1      12.974   6.490  10.520  1.00  0.00     0.194 HD
BRANCH  26  28
HETATM   28  S1  UNL     1      14.974   5.675  11.653  1.00  0.00     0.236 S 
HETATM   29  C1  UNL     1      14.514   5.239  13.319  1.00  0.00     0.187 C 
HETATM   30  O1  UNL     1      16.360   6.264  11.714  1.00  0.00    -0.205 OA
HETATM   31  O2  UNL     1      14.973   4.406  10.829  1.00  0.00    -0.205 OA
ENDBRANCH  26  28
ENDBRANCH   1  26
TORSDOF 2
ENDMDL
