MODEL 1
REMARK VINA RESULT: -8.548686124      0.000      0.000
REMARK  6 active torsions:
REMARK  status: ('A' for Active; 'I' for Inactive)
REMARK    1  A    between atoms: C4_8  and  C5_9 
REMARK    2  A    between atoms: C5_9  and  N5_19 
REMARK    3  A    between atoms: N3_10  and  O2_12 
REMARK    4  A    between atoms: O2_12  and  C6_13 
REMARK       I    between atoms: C6_13  and  N4_15 
REMARK    5  A    between atoms: N4_15  and  O4_16 
REMARK    6  A    between atoms: N5_19  and  C7_21 
ROOT
HETATM    1  C5  UNL     1      14.170   9.746  12.555  1.00  0.00     0.139 C 
HETATM    2  N3  UNL     1      14.533  10.080  13.731  1.00  0.00    -0.239 N 
ATOM      3  H3  UNL     1      14.985   9.373  14.311  1.00  0.00     0.196 HD
ENDROOT
BRANCH   1   4
HETATM    4  C4  UNL     1      14.420   8.382  12.108  1.00  0.00     0.093 A 
HETATM    5  C3  UNL     1      14.781   8.110  10.804  1.00  0.00     0.113 A 
HETATM    6  N2  UNL     1      14.993   6.829  10.471  1.00  0.00    -0.318 N 
HETATM    7  C2  UNL     1      14.863   5.835  11.365  1.00  0.00     0.328 A 
ATOM      8  H2  UNL     1      15.261   6.602   9.513  1.00  0.00     0.170 HD
HETATM    9  N1  UNL     1      14.512   6.110  12.629  1.00  0.00    -0.270 N 
HETATM   10  O1  UNL     1      15.073   4.625  11.013  1.00  0.00    -0.246 OA
HETATM   11  C1  UNL     1      14.368   5.049  13.604  1.00  0.00     0.164 C 
HETATM   12  C16 UNL     1      14.287   7.366  13.026  1.00  0.00     0.266 A 
HETATM   13  O5  UNL     1      13.953   7.625  14.231  1.00  0.00    -0.267 OA
ENDBRANCH   1   4
BRANCH   1  14
HETATM   14  N5  UNL     1      13.533  10.631  11.649  1.00  0.00    -0.369 N 
ATOM     15  H5  UNL     1      14.115  11.284  11.124  1.00  0.00     0.161 HD
BRANCH  14  16
HETATM   16  C7  UNL     1      12.098  10.660  11.427  1.00  0.00     0.088 C 
HETATM   17  C8  UNL     1      11.522  11.787  12.203  1.00  0.00     0.055 C 
HETATM   18  C9  UNL     1      10.637  12.707  11.427  1.00  0.00     0.021 C 
HETATM   19  C10 UNL     1      11.500  13.797  10.815  1.00  0.00     0.037 C 
HETATM   20  C11 UNL     1       9.706  13.400  12.408  1.00  0.00     0.037 C 
HETATM   21  N6  UNL     1       9.844  12.019  10.479  1.00  0.00    -0.405 N 
HETATM   22  C12 UNL     1      10.543  11.240   9.517  1.00  0.00     0.021 C 
ATOM     23  H6  UNL     1       8.826  12.077  10.486  1.00  0.00     0.154 HD
HETATM   24  C13 UNL     1       9.556  10.151   9.065  1.00  0.00     0.037 C 
HETATM   25  C14 UNL     1      10.752  12.112   8.291  1.00  0.00     0.037 C 
HETATM   26  C15 UNL     1      11.824  10.644   9.969  1.00  0.00     0.055 C 
ENDBRANCH  14  16
ENDBRANCH   1  14
BRANCH   2  27
HETATM   27  O2  UNL     1      14.354  11.332  14.268  1.00  0.00    -0.176 OA
BRANCH  27  28
HETATM   28  C6  UNL     1      13.436  11.563  15.266  1.00  0.00     0.438 C 
HETATM   29  O3  UNL     1      13.245  10.620  16.090  1.00  0.00    -0.231 OA
HETATM   30  N4  UNL     1      12.713  12.782  15.406  1.00  0.00    -0.017 N 
HETATM   31  F1  UNL     1      12.886  13.791  14.560  1.00  0.00    -0.065 F 
BRANCH  30  32
HETATM   32  O4  UNL     1      11.828  12.921  16.417  1.00  0.00    -0.255 OA
ATOM     33  H4  UNL     1      11.944  13.619  17.051  1.00  0.00     0.248 HD
ENDBRANCH  30  32
ENDBRANCH  27  28
ENDBRANCH   2  27
TORSDOF 6
ENDMDL
MODEL 2
REMARK VINA RESULT: -8.256388541      2.201      6.070
REMARK  6 active torsions:
REMARK  status: ('A' for Active; 'I' for Inactive)
REMARK    1  A    between atoms: C4_8  and  C5_9 
REMARK    2  A    between atoms: C5_9  and  N5_19 
REMARK    3  A    between atoms: N3_10  and  O2_12 
REMARK    4  A    between atoms: O2_12  and  C6_13 
REMARK       I    between atoms: C6_13  and  N4_15 
REMARK    5  A    between atoms: N4_15  and  O4_16 
REMARK    6  A    between atoms: N5_19  and  C7_21 
ROOT
HETATM    1  C5  UNL     1      13.468   9.991  12.118  1.00  0.00     0.139 C 
HETATM    2  N3  UNL     1      14.218  10.852  12.687  1.00  0.00    -0.239 N 
ATOM      3  H3  UNL     1      14.090  11.834  12.440  1.00  0.00     0.196 HD
ENDROOT
BRANCH   1   4
HETATM    4  C4  UNL     1      12.478  10.454  11.155  1.00  0.00     0.093 A 
HETATM    5  C3  UNL     1      12.422   9.934   9.878  1.00  0.00     0.113 A 
HETATM    6  N2  UNL     1      11.482  10.412   9.051  1.00  0.00    -0.318 N 
HETATM    7  C2  UNL     1      10.617  11.364   9.439  1.00  0.00     0.328 A 
ATOM      8  H2  UNL     1      11.421  10.043   8.101  1.00  0.00     0.170 HD
HETATM    9  N1  UNL     1      10.680  11.863  10.681  1.00  0.00    -0.270 N 
HETATM   10  O1  UNL     1       9.733  11.797   8.624  1.00  0.00    -0.246 OA
HETATM   11  C1  UNL     1       9.755  12.889  11.114  1.00  0.00     0.164 C 
HETATM   12  C16 UNL     1      11.593  11.429  11.555  1.00  0.00     0.266 A 
HETATM   13  O5  UNL     1      11.650  11.905  12.738  1.00  0.00    -0.267 OA
ENDBRANCH   1   4
BRANCH   1  14
HETATM   14  N5  UNL     1      13.542   8.598  12.371  1.00  0.00    -0.369 N 
ATOM     15  H5  UNL     1      13.079   8.234  13.203  1.00  0.00     0.161 HD
BRANCH  14  16
HETATM   16  C7  UNL     1      14.238   7.659  11.509  1.00  0.00     0.088 C 
HETATM   17  C8  UNL     1      15.521   7.283  12.157  1.00  0.00     0.055 C 
HETATM   18  C9  UNL     1      15.776   5.815  12.258  1.00  0.00     0.021 C 
HETATM   19  C10 UNL     1      15.172   5.313  13.558  1.00  0.00     0.037 C 
HETATM   20  C11 UNL     1      17.277   5.608  12.377  1.00  0.00     0.037 C 
HETATM   21  N6  UNL     1      15.324   5.111  11.118  1.00  0.00    -0.405 N 
HETATM   22  C12 UNL     1      13.946   5.249  10.795  1.00  0.00     0.021 C 
ATOM     23  H6  UNL     1      15.952   4.535  10.558  1.00  0.00     0.154 HD
HETATM   24  C13 UNL     1      13.843   4.977   9.285  1.00  0.00     0.037 C 
HETATM   25  C14 UNL     1      13.206   4.097  11.453  1.00  0.00     0.037 C 
HETATM   26  C15 UNL     1      13.324   6.550  11.145  1.00  0.00     0.055 C 
ENDBRANCH  14  16
ENDBRANCH   1  14
BRANCH   2  27
HETATM   27  O2  UNL     1      15.187  10.542  13.610  1.00  0.00    -0.176 OA
BRANCH  27  28
HETATM   28  C6  UNL     1      14.870   9.988  14.828  1.00  0.00     0.438 C 
HETATM   29  O3  UNL     1      15.428   8.887  15.114  1.00  0.00    -0.231 OA
HETATM   30  N4  UNL     1      13.966  10.583  15.753  1.00  0.00    -0.017 N 
HETATM   31  F1  UNL     1      13.361  11.736  15.487  1.00  0.00    -0.065 F 
BRANCH  30  32
HETATM   32  O4  UNL     1      13.710   9.968  16.929  1.00  0.00    -0.255 OA
ATOM     33  H4  UNL     1      12.877   9.532  17.061  1.00  0.00     0.248 HD
ENDBRANCH  30  32
ENDBRANCH  27  28
ENDBRANCH   2  27
TORSDOF 6
ENDMDL
MODEL 3
REMARK VINA RESULT: -8.152691745      3.222      4.970
REMARK  6 active torsions:
REMARK  status: ('A' for Active; 'I' for Inactive)
REMARK    1  A    between atoms: C4_8  and  C5_9 
REMARK    2  A    between atoms: C5_9  and  N5_19 
REMARK    3  A    between atoms: N3_10  and  O2_12 
REMARK    4  A    between atoms: O2_12  and  C6_13 
REMARK       I    between atoms: C6_13  and  N4_15 
REMARK    5  A    between atoms: N4_15  and  O4_16 
REMARK    6  A    between atoms: N5_19  and  C7_21 
ROOT
HETATM    1  C5  UNL     1      13.785   7.397  10.971  1.00  0.00     0.139 C 
HETATM    2  N3  UNL     1      13.195   7.593   9.858  1.00  0.00    -0.239 N 
ATOM      3  H3  UNL     1      12.972   6.778   9.285  1.00  0.00     0.196 HD
ENDROOT
BRANCH   1   4
HETATM    4  C4  UNL     1      14.107   6.030  11.360  1.00  0.00     0.093 A 
HETATM    5  C3  UNL     1      13.146   5.039  11.357  1.00  0.00     0.113 A 
HETATM    6  N2  UNL     1      13.522   3.806  11.727  1.00  0.00    -0.318 N 
HETATM    7  C2  UNL     1      14.786   3.531  12.090  1.00  0.00     0.328 A 
ATOM      8  H2  UNL     1      12.830   3.057  11.734  1.00  0.00     0.170 HD
HETATM    9  N1  UNL     1      15.711   4.501  12.089  1.00  0.00    -0.270 N 
HETATM   10  O1  UNL     1      15.109   2.345  12.437  1.00  0.00    -0.246 OA
HETATM   11  C1  UNL     1      17.077   4.220  12.477  1.00  0.00     0.164 C 
HETATM   12  C16 UNL     1      15.403   5.751  11.730  1.00  0.00     0.266 A 
HETATM   13  O5  UNL     1      16.286   6.672  11.729  1.00  0.00    -0.267 OA
ENDBRANCH   1   4
BRANCH   1  14
HETATM   14  N5  UNL     1      14.150   8.439  11.860  1.00  0.00    -0.369 N 
ATOM     15  H5  UNL     1      15.121   8.749  11.866  1.00  0.00     0.161 HD
BRANCH  14  16
HETATM   16  C7  UNL     1      13.218   9.090  12.763  1.00  0.00     0.088 C 
HETATM   17  C8  UNL     1      13.660   8.842  14.159  1.00  0.00     0.055 C 
HETATM   18  C9  UNL     1      13.766  10.060  15.018  1.00  0.00     0.021 C 
HETATM   19  C10 UNL     1      15.163  10.635  14.861  1.00  0.00     0.037 C 
HETATM   20  C11 UNL     1      13.646   9.622  16.469  1.00  0.00     0.037 C 
HETATM   21  N6  UNL     1      12.739  10.996  14.754  1.00  0.00    -0.405 N 
HETATM   22  C12 UNL     1      12.642  11.466  13.416  1.00  0.00     0.021 C 
ATOM     23  H6  UNL     1      12.103  11.316  15.484  1.00  0.00     0.154 HD
HETATM   24  C13 UNL     1      11.179  11.904  13.234  1.00  0.00     0.037 C 
HETATM   25  C14 UNL     1      13.449  12.749  13.323  1.00  0.00     0.037 C 
HETATM   26  C15 UNL     1      13.045  10.506  12.359  1.00  0.00     0.055 C 
ENDBRANCH  14  16
ENDBRANCH   1  14
BRANCH   2  27
HETATM   27  O2  UNL     1      12.839   8.831   9.380  1.00  0.00    -0.176 OA
BRANCH  27  28
HETATM   28  C6  UNL     1      11.670   9.024   8.681  1.00  0.00     0.438 C 
HETATM   29  O3  UNL     1      11.402   8.174   7.779  1.00  0.00    -0.231 OA
HETATM   30  N4  UNL     1      10.777  10.106   8.920  1.00  0.00    -0.017 N 
HETATM   31  F1  UNL     1      11.027  11.016   9.856  1.00  0.00    -0.065 F 
BRANCH  30  32
HETATM   32  O4  UNL     1       9.650  10.219   8.183  1.00  0.00    -0.255 OA
ATOM     33  H4  UNL     1       9.468  11.029   7.723  1.00  0.00     0.248 HD
ENDBRANCH  30  32
ENDBRANCH  27  28
ENDBRANCH   2  27
TORSDOF 6
ENDMDL
MODEL 4
REMARK VINA RESULT: -8.124891243      3.004      7.191
REMARK  6 active torsions:
REMARK  status: ('A' for Active; 'I' for Inactive)
REMARK    1  A    between atoms: C4_8  and  C5_9 
REMARK    2  A    between atoms: C5_9  and  N5_19 
REMARK    3  A    between atoms: N3_10  and  O2_12 
REMARK    4  A    between atoms: O2_12  and  C6_13 
REMARK       I    between atoms: C6_13  and  N4_15 
REMARK    5  A    between atoms: N4_15  and  O4_16 
REMARK    6  A    between atoms: N5_19  and  C7_21 
ROOT
HETATM    1  C5  UNL     1      13.840   8.465  12.090  1.00  0.00     0.139 C 
HETATM    2  N3  UNL     1      13.684   9.127  11.012  1.00  0.00    -0.239 N 
ATOM      3  H3  UNL     1      13.822  10.137  11.047  1.00  0.00     0.196 HD
ENDROOT
BRANCH   1   4
HETATM    4  C4  UNL     1      14.205   9.184  13.304  1.00  0.00     0.093 A 
HETATM    5  C3  UNL     1      15.310   8.820  14.047  1.00  0.00     0.113 A 
HETATM    6  N2  UNL     1      15.579   9.532  15.152  1.00  0.00    -0.318 N 
HETATM    7  C2  UNL     1      14.809  10.564  15.533  1.00  0.00     0.328 A 
ATOM      8  H2  UNL     1      16.391   9.282  15.717  1.00  0.00     0.170 HD
HETATM    9  N1  UNL     1      13.738  10.909  14.804  1.00  0.00    -0.270 N 
HETATM   10  O1  UNL     1      15.095  11.220  16.591  1.00  0.00    -0.246 OA
HETATM   11  C1  UNL     1      12.898  12.019  15.202  1.00  0.00     0.164 C 
HETATM   12  C16 UNL     1      13.415  10.241  13.692  1.00  0.00     0.266 A 
HETATM   13  O5  UNL     1      12.394  10.572  13.000  1.00  0.00    -0.267 OA
ENDBRANCH   1   4
BRANCH   1  14
HETATM   14  N5  UNL     1      13.679   7.059  12.179  1.00  0.00    -0.369 N 
ATOM     15  H5  UNL     1      12.946   6.696  12.787  1.00  0.00     0.161 HD
BRANCH  14  16
HETATM   16  C7  UNL     1      14.500   6.107  11.452  1.00  0.00     0.088 C 
HETATM   17  C8  UNL     1      15.906   6.245  11.912  1.00  0.00     0.055 C 
HETATM   18  C9  UNL     1      16.572   4.970  12.314  1.00  0.00     0.021 C 
HETATM   19  C10 UNL     1      16.295   4.730  13.788  1.00  0.00     0.037 C 
HETATM   20  C11 UNL     1      18.074   5.167  12.189  1.00  0.00     0.037 C 
HETATM   21  N6  UNL     1      16.200   3.885  11.487  1.00  0.00    -0.405 N 
HETATM   22  C12 UNL     1      14.809   3.596  11.412  1.00  0.00     0.021 C 
ATOM     23  H6  UNL     1      16.891   3.340  10.972  1.00  0.00     0.154 HD
HETATM   24  C13 UNL     1      14.603   2.890  10.062  1.00  0.00     0.037 C 
HETATM   25  C14 UNL     1      14.507   2.538  12.458  1.00  0.00     0.037 C 
HETATM   26  C15 UNL     1      13.896   4.757  11.550  1.00  0.00     0.055 C 
ENDBRANCH  14  16
ENDBRANCH   1  14
BRANCH   2  27
HETATM   27  O2  UNL     1      13.341   8.566   9.805  1.00  0.00    -0.176 OA
BRANCH  27  28
HETATM   28  C6  UNL     1      12.047   8.598   9.338  1.00  0.00     0.438 C 
HETATM   29  O3  UNL     1      11.398   7.511   9.391  1.00  0.00    -0.231 OA
HETATM   30  N4  UNL     1      11.427   9.768   8.814  1.00  0.00    -0.017 N 
HETATM   31  F1  UNL     1      12.077  10.925   8.743  1.00  0.00    -0.065 F 
BRANCH  30  32
HETATM   32  O4  UNL     1      10.150   9.708   8.376  1.00  0.00    -0.255 OA
ATOM     33  H4  UNL     1       9.586  10.467   8.466  1.00  0.00     0.248 HD
ENDBRANCH  30  32
ENDBRANCH  27  28
ENDBRANCH   2  27
TORSDOF 6
ENDMDL
MODEL 5
REMARK VINA RESULT: -8.105312661      1.574      1.672
REMARK  6 active torsions:
REMARK  status: ('A' for Active; 'I' for Inactive)
REMARK    1  A    between atoms: C4_8  and  C5_9 
REMARK    2  A    between atoms: C5_9  and  N5_19 
REMARK    3  A    between atoms: N3_10  and  O2_12 
REMARK    4  A    between atoms: O2_12  and  C6_13 
REMARK       I    between atoms: C6_13  and  N4_15 
REMARK    5  A    between atoms: N4_15  and  O4_16 
REMARK    6  A    between atoms: N5_19  and  C7_21 
ROOT
HETATM    1  C5  UNL     1      14.561   9.319  12.451  1.00  0.00     0.139 C 
HETATM    2  N3  UNL     1      15.208   9.403  13.547  1.00  0.00    -0.239 N 
ATOM      3  H3  UNL     1      15.671   8.563  13.895  1.00  0.00     0.196 HD
ENDROOT
BRANCH   1   4
HETATM    4  C4  UNL     1      14.521   8.036  11.762  1.00  0.00     0.093 A 
HETATM    5  C3  UNL     1      14.706   7.951  10.396  1.00  0.00     0.113 A 
HETATM    6  N2  UNL     1      14.654   6.734   9.836  1.00  0.00    -0.318 N 
HETATM    7  C2  UNL     1      14.431   5.628  10.566  1.00  0.00     0.328 A 
ATOM      8  H2  UNL     1      14.787   6.645   8.828  1.00  0.00     0.170 HD
HETATM    9  N1  UNL     1      14.253   5.722  11.890  1.00  0.00    -0.270 N 
HETATM   10  O1  UNL     1      14.388   4.485   9.998  1.00  0.00    -0.246 OA
HETATM   11  C1  UNL     1      14.013   4.540  12.690  1.00  0.00     0.164 C 
HETATM   12  C16 UNL     1      14.293   6.905  12.511  1.00  0.00     0.266 A 
HETATM   13  O5  UNL     1      14.124   6.991  13.774  1.00  0.00    -0.267 OA
ENDBRANCH   1   4
BRANCH   1  14
HETATM   14  N5  UNL     1      13.874  10.409  11.859  1.00  0.00    -0.369 N 
ATOM     15  H5  UNL     1      14.418  11.223  11.574  1.00  0.00     0.161 HD
BRANCH  14  16
HETATM   16  C7  UNL     1      12.439  10.430  11.636  1.00  0.00     0.088 C 
HETATM   17  C8  UNL     1      11.845  11.497  12.481  1.00  0.00     0.055 C 
HETATM   18  C9  UNL     1      10.947  12.451  11.763  1.00  0.00     0.021 C 
HETATM   19  C10 UNL     1      11.794  13.590  11.222  1.00  0.00     0.037 C 
HETATM   20  C11 UNL     1      10.005  13.067  12.784  1.00  0.00     0.037 C 
HETATM   21  N6  UNL     1      10.165  11.811  10.772  1.00  0.00    -0.405 N 
HETATM   22  C12 UNL     1      10.877  11.106   9.764  1.00  0.00     0.021 C 
ATOM     23  H6  UNL     1       9.146  11.854  10.781  1.00  0.00     0.154 HD
HETATM   24  C13 UNL     1       9.907  10.032   9.243  1.00  0.00     0.037 C 
HETATM   25  C14 UNL     1      11.074  12.056   8.596  1.00  0.00     0.037 C 
HETATM   26  C15 UNL     1      12.166  10.501  10.181  1.00  0.00     0.055 C 
ENDBRANCH  14  16
ENDBRANCH   1  14
BRANCH   2  27
HETATM   27  O2  UNL     1      15.320  10.554  14.291  1.00  0.00    -0.176 OA
BRANCH  27  28
HETATM   28  C6  UNL     1      14.805  10.641  15.563  1.00  0.00     0.438 C 
HETATM   29  O3  UNL     1      13.544  10.724  15.660  1.00  0.00    -0.231 OA
HETATM   30  N4  UNL     1      15.607  10.643  16.740  1.00  0.00    -0.017 N 
HETATM   31  F1  UNL     1      16.931  10.559  16.676  1.00  0.00    -0.065 F 
BRANCH  30  32
HETATM   32  O4  UNL     1      15.015  10.734  17.952  1.00  0.00    -0.255 OA
ATOM     33  H4  UNL     1      14.273  10.178  18.156  1.00  0.00     0.248 HD
ENDBRANCH  30  32
ENDBRANCH  27  28
ENDBRANCH   2  27
TORSDOF 6
ENDMDL
