MODEL 1
REMARK VINA RESULT: -7.781211493      0.000      0.000
REMARK  11 active torsions:
REMARK  status: ('A' for Active; 'I' for Inactive)
REMARK    1  A    between atoms: C2_2  and  N1_3 
REMARK    2  A    between atoms: N1_3  and  C3_4 
REMARK    3  A    between atoms: N1_3  and  C10_11 
REMARK    4  A    between atoms: C3_4  and  C4_5 
REMARK    5  A    between atoms: C10_11  and  C11_12 
REMARK    6  A    between atoms: C14_15  and  N2_16 
REMARK    7  A    between atoms: N2_16  and  C15_18 
REMARK    8  A    between atoms: C20_27  and  N5_28 
REMARK    9  A    between atoms: C21_31  and  C22_32 
REMARK   10  A    between atoms: C25_35  and  O1_36 
REMARK   11  A    between atoms: O1_36  and  C26_37 
ROOT
HETATM    1  C11 UNL     1      18.274 -29.162 -53.645  1.00  0.00    -0.009 A 
HETATM    2  C12 UNL     1      16.984 -28.680 -53.646  1.00  0.00     0.013 A 
HETATM    3  C13 UNL     1      16.705 -27.327 -53.702  1.00  0.00     0.030 A 
HETATM    4  C14 UNL     1      17.704 -26.381 -53.762  1.00  0.00     0.034 A 
HETATM    5  C30 UNL     1      18.994 -26.855 -53.760  1.00  0.00     0.052 A 
HETATM    6  C31 UNL     1      19.280 -28.211 -53.703  1.00  0.00     0.054 A 
HETATM    7  C32 UNL     1      20.637 -28.677 -53.707  1.00  0.00     0.100 C 
HETATM    8  N6  UNL     1      21.720 -29.052 -53.734  1.00  0.00    -0.191 NA
ENDROOT
BRANCH   1   9
HETATM    9  C10 UNL     1      18.562 -30.591 -53.543  1.00  0.00     0.313 C 
BRANCH   9  10
HETATM   10  N1  UNL     1      18.049 -31.385 -54.666  1.00  0.00     0.096 N 
BRANCH  10  11
HETATM   11  C2  UNL     1      18.303 -32.781 -54.321  1.00  0.00     0.268 C 
HETATM   12  C1  UNL     1      19.713 -33.184 -54.557  1.00  0.00     0.037 C 
ENDBRANCH  10  11
BRANCH  10  13
HETATM   13  C3  UNL     1      18.895 -31.108 -55.837  1.00  0.00     0.311 C 
BRANCH  13  14
HETATM   14  C4  UNL     1      18.174 -30.716 -57.035  1.00  0.00    -0.030 A 
HETATM   15  C5  UNL     1      17.972 -29.355 -57.291  1.00  0.00     0.009 A 
HETATM   16  C6  UNL     1      17.269 -28.943 -58.411  1.00  0.00     0.001 A 
HETATM   17  C7  UNL     1      16.748 -29.847 -59.310  1.00  0.00     0.000 A 
HETATM   18  C8  UNL     1      16.934 -31.204 -59.078  1.00  0.00     0.001 A 
HETATM   19  C9  UNL     1      17.642 -31.575 -57.946  1.00  0.00     0.009 A 
ENDBRANCH  13  14
ENDBRANCH  10  13
ENDBRANCH   9  10
ENDBRANCH   1   9
BRANCH   4  20
HETATM   20  N2  UNL     1      17.484 -24.988 -53.827  1.00  0.00    -0.355 N 
ATOM     21  H2  UNL     1      16.591 -24.640 -54.177  1.00  0.00     0.166 HD
BRANCH  20  22
HETATM   22  C15 UNL     1      18.370 -24.159 -53.461  1.00  0.00     0.047 A 
HETATM   23  C16 UNL     1      18.875 -24.204 -52.154  1.00  0.00     0.047 A 
HETATM   24  C17 UNL     1      19.871 -23.306 -51.822  1.00  0.00     0.090 A 
HETATM   25  N3  UNL     1      20.357 -22.421 -52.677  1.00  0.00    -0.364 N 
HETATM   26  C18 UNL     1      19.902 -22.343 -53.940  1.00  0.00     0.061 A 
ATOM     27  H3  UNL     1      21.094 -21.784 -52.371  1.00  0.00     0.165 HD
HETATM   28  C19 UNL     1      20.420 -21.406 -54.814  1.00  0.00     0.120 A 
HETATM   29  C29 UNL     1      18.885 -23.225 -54.356  1.00  0.00     0.034 A 
HETATM   30  N4  UNL     1      19.939 -21.353 -56.051  1.00  0.00    -0.350 N 
HETATM   31  C20 UNL     1      18.972 -22.177 -56.475  1.00  0.00     0.111 A 
ATOM     32  H4  UNL     1      20.318 -20.662 -56.699  1.00  0.00     0.166 HD
HETATM   33  C21 UNL     1      18.409 -23.153 -55.617  1.00  0.00     0.033 A 
BRANCH  31  34
HETATM   34  N5  UNL     1      18.524 -22.097 -57.680  1.00  0.00    -0.385 N 
ATOM     35  H52 UNL     1      19.109 -22.457 -58.434  1.00  0.00     0.157 HD
ATOM     36  H51 UNL     1      17.609 -21.688 -57.869  1.00  0.00     0.157 HD
ENDBRANCH  31  34
BRANCH  33  37
HETATM   37  C22 UNL     1      17.362 -23.966 -56.173  1.00  0.00    -0.021 A 
HETATM   38  C23 UNL     1      16.011 -23.666 -55.963  1.00  0.00     0.015 A 
HETATM   39  C24 UNL     1      15.017 -24.406 -56.560  1.00  0.00     0.038 A 
HETATM   40  C25 UNL     1      15.317 -25.474 -57.390  1.00  0.00     0.078 A 
HETATM   41  C27 UNL     1      16.645 -25.765 -57.591  1.00  0.00     0.038 A 
HETATM   42  C28 UNL     1      17.664 -25.024 -56.995  1.00  0.00     0.015 A 
BRANCH  40  43
HETATM   43  O1  UNL     1      14.286 -26.213 -57.986  1.00  0.00    -0.255 OA
BRANCH  43  44
HETATM   44  C26 UNL     1      14.097 -26.246 -59.379  1.00  0.00     0.530 C 
HETATM   45  F1  UNL     1      14.578 -25.039 -59.871  1.00  0.00    -0.144 F 
HETATM   46  F2  UNL     1      12.759 -26.274 -59.728  1.00  0.00    -0.144 F 
HETATM   47  F3  UNL     1      14.714 -27.300 -59.995  1.00  0.00    -0.144 F 
ENDBRANCH  43  44
ENDBRANCH  40  43
ENDBRANCH  33  37
ENDBRANCH  20  22
ENDBRANCH   4  20
TORSDOF 11
ENDMDL
MODEL 2
REMARK VINA RESULT: -7.759131442      0.759      1.286
REMARK  11 active torsions:
REMARK  status: ('A' for Active; 'I' for Inactive)
REMARK    1  A    between atoms: C2_2  and  N1_3 
REMARK    2  A    between atoms: N1_3  and  C3_4 
REMARK    3  A    between atoms: N1_3  and  C10_11 
REMARK    4  A    between atoms: C3_4  and  C4_5 
REMARK    5  A    between atoms: C10_11  and  C11_12 
REMARK    6  A    between atoms: C14_15  and  N2_16 
REMARK    7  A    between atoms: N2_16  and  C15_18 
REMARK    8  A    between atoms: C20_27  and  N5_28 
REMARK    9  A    between atoms: C21_31  and  C22_32 
REMARK   10  A    between atoms: C25_35  and  O1_36 
REMARK   11  A    between atoms: O1_36  and  C26_37 
ROOT
HETATM    1  C11 UNL     1      17.522 -29.157 -53.600  1.00  0.00    -0.009 A 
HETATM    2  C12 UNL     1      16.298 -28.543 -53.465  1.00  0.00     0.013 A 
HETATM    3  C13 UNL     1      16.142 -27.175 -53.601  1.00  0.00     0.030 A 
HETATM    4  C14 UNL     1      17.206 -26.348 -53.882  1.00  0.00     0.034 A 
HETATM    5  C30 UNL     1      18.432 -26.955 -54.016  1.00  0.00     0.052 A 
HETATM    6  C31 UNL     1      18.594 -28.326 -53.880  1.00  0.00     0.054 A 
HETATM    7  C32 UNL     1      19.886 -28.932 -54.030  1.00  0.00     0.100 C 
HETATM    8  N6  UNL     1      20.913 -29.420 -54.173  1.00  0.00    -0.191 NA
ENDROOT
BRANCH   1   9
HETATM    9  C10 UNL     1      17.686 -30.598 -53.413  1.00  0.00     0.313 C 
BRANCH   9  10
HETATM   10  N1  UNL     1      16.928 -31.414 -54.369  1.00  0.00     0.096 N 
BRANCH  10  11
HETATM   11  C2  UNL     1      16.748 -32.716 -53.732  1.00  0.00     0.268 C 
HETATM   12  C1  UNL     1      15.694 -33.534 -54.386  1.00  0.00     0.037 C 
ENDBRANCH  10  11
BRANCH  10  13
HETATM   13  C3  UNL     1      17.792 -31.660 -55.533  1.00  0.00     0.311 C 
BRANCH  13  14
HETATM   14  C4  UNL     1      17.318 -31.085 -56.780  1.00  0.00    -0.030 A 
HETATM   15  C5  UNL     1      17.817 -29.843 -57.188  1.00  0.00     0.009 A 
HETATM   16  C6  UNL     1      17.372 -29.253 -58.359  1.00  0.00     0.001 A 
HETATM   17  C7  UNL     1      16.432 -29.859 -59.163  1.00  0.00     0.000 A 
HETATM   18  C8  UNL     1      15.921 -31.093 -58.779  1.00  0.00     0.001 A 
HETATM   19  C9  UNL     1      16.392 -31.650 -57.601  1.00  0.00     0.009 A 
ENDBRANCH  13  14
ENDBRANCH  10  13
ENDBRANCH   9  10
ENDBRANCH   1   9
BRANCH   4  20
HETATM   20  N2  UNL     1      17.111 -24.948 -54.039  1.00  0.00    -0.355 N 
ATOM     21  H2  UNL     1      16.302 -24.554 -54.520  1.00  0.00     0.166 HD
BRANCH  20  22
HETATM   22  C15 UNL     1      18.007 -24.169 -53.595  1.00  0.00     0.047 A 
HETATM   23  C16 UNL     1      18.375 -24.222 -52.244  1.00  0.00     0.047 A 
HETATM   24  C17 UNL     1      19.389 -23.382 -51.823  1.00  0.00     0.090 A 
HETATM   25  N3  UNL     1      20.013 -22.544 -52.635  1.00  0.00    -0.364 N 
HETATM   26  C18 UNL     1      19.691 -22.460 -53.938  1.00  0.00     0.061 A 
ATOM     27  H3  UNL     1      20.754 -21.948 -52.265  1.00  0.00     0.165 HD
HETATM   28  C19 UNL     1      20.352 -21.573 -54.767  1.00  0.00     0.120 A 
HETATM   29  C29 UNL     1      18.666 -23.285 -54.445  1.00  0.00     0.034 A 
HETATM   30  N4  UNL     1      20.000 -21.512 -56.047  1.00  0.00    -0.350 N 
HETATM   31  C20 UNL     1      19.030 -22.282 -56.557  1.00  0.00     0.111 A 
ATOM     32  H4  UNL     1      20.486 -20.858 -56.661  1.00  0.00     0.166 HD
HETATM   33  C21 UNL     1      18.325 -23.207 -55.748  1.00  0.00     0.033 A 
BRANCH  31  34
HETATM   34  N5  UNL     1      18.711 -22.197 -57.801  1.00  0.00    -0.385 N 
ATOM     35  H52 UNL     1      19.117 -21.440 -58.351  1.00  0.00     0.157 HD
ATOM     36  H51 UNL     1      18.071 -22.872 -58.221  1.00  0.00     0.157 HD
ENDBRANCH  31  34
BRANCH  33  37
HETATM   37  C22 UNL     1      17.288 -23.962 -56.396  1.00  0.00    -0.021 A 
HETATM   38  C23 UNL     1      17.578 -25.096 -57.163  1.00  0.00     0.015 A 
HETATM   39  C24 UNL     1      16.574 -25.855 -57.718  1.00  0.00     0.038 A 
HETATM   40  C25 UNL     1      15.240 -25.524 -57.539  1.00  0.00     0.078 A 
HETATM   41  C27 UNL     1      14.962 -24.409 -56.787  1.00  0.00     0.038 A 
HETATM   42  C28 UNL     1      15.968 -23.630 -56.216  1.00  0.00     0.015 A 
BRANCH  40  43
HETATM   43  O1  UNL     1      14.236 -26.314 -58.116  1.00  0.00    -0.255 OA
BRANCH  43  44
HETATM   44  C26 UNL     1      13.941 -26.265 -59.489  1.00  0.00     0.530 C 
HETATM   45  F1  UNL     1      14.725 -27.238 -60.096  1.00  0.00    -0.144 F 
HETATM   46  F2  UNL     1      14.330 -25.070 -60.068  1.00  0.00    -0.144 F 
HETATM   47  F3  UNL     1      12.619 -26.460 -59.778  1.00  0.00    -0.144 F 
ENDBRANCH  43  44
ENDBRANCH  40  43
ENDBRANCH  33  37
ENDBRANCH  20  22
ENDBRANCH   4  20
TORSDOF 11
ENDMDL
MODEL 3
REMARK VINA RESULT: -7.703571168      1.622      2.112
REMARK  11 active torsions:
REMARK  status: ('A' for Active; 'I' for Inactive)
REMARK    1  A    between atoms: C2_2  and  N1_3 
REMARK    2  A    between atoms: N1_3  and  C3_4 
REMARK    3  A    between atoms: N1_3  and  C10_11 
REMARK    4  A    between atoms: C3_4  and  C4_5 
REMARK    5  A    between atoms: C10_11  and  C11_12 
REMARK    6  A    between atoms: C14_15  and  N2_16 
REMARK    7  A    between atoms: N2_16  and  C15_18 
REMARK    8  A    between atoms: C20_27  and  N5_28 
REMARK    9  A    between atoms: C21_31  and  C22_32 
REMARK   10  A    between atoms: C25_35  and  O1_36 
REMARK   11  A    between atoms: O1_36  and  C26_37 
ROOT
HETATM    1  C11 UNL     1      17.621 -29.395 -54.003  1.00  0.00    -0.009 A 
HETATM    2  C12 UNL     1      18.464 -28.614 -54.761  1.00  0.00     0.013 A 
HETATM    3  C13 UNL     1      18.411 -27.232 -54.732  1.00  0.00     0.030 A 
HETATM    4  C14 UNL     1      17.509 -26.557 -53.940  1.00  0.00     0.034 A 
HETATM    5  C30 UNL     1      16.664 -27.331 -53.182  1.00  0.00     0.052 A 
HETATM    6  C31 UNL     1      16.712 -28.717 -53.207  1.00  0.00     0.054 A 
HETATM    7  C32 UNL     1      15.819 -29.499 -52.401  1.00  0.00     0.100 C 
HETATM    8  N6  UNL     1      15.123 -30.124 -51.740  1.00  0.00    -0.191 NA
ENDROOT
BRANCH   1   9
HETATM    9  C10 UNL     1      17.655 -30.855 -54.071  1.00  0.00     0.313 C 
BRANCH   9  10
HETATM   10  N1  UNL     1      16.590 -31.440 -54.893  1.00  0.00     0.096 N 
BRANCH  10  11
HETATM   11  C2  UNL     1      16.344 -32.771 -54.347  1.00  0.00     0.268 C 
HETATM   12  C1  UNL     1      17.079 -33.017 -53.080  1.00  0.00     0.037 C 
ENDBRANCH  10  11
BRANCH  10  13
HETATM   13  C3  UNL     1      17.133 -31.660 -56.242  1.00  0.00     0.311 C 
BRANCH  13  14
HETATM   14  C4  UNL     1      16.772 -30.650 -57.221  1.00  0.00    -0.030 A 
HETATM   15  C5  UNL     1      15.632 -29.870 -57.003  1.00  0.00     0.009 A 
HETATM   16  C6  UNL     1      15.243 -28.913 -57.925  1.00  0.00     0.001 A 
HETATM   17  C7  UNL     1      15.957 -28.691 -59.082  1.00  0.00     0.000 A 
HETATM   18  C8  UNL     1      17.093 -29.453 -59.322  1.00  0.00     0.001 A 
HETATM   19  C9  UNL     1      17.448 -30.400 -58.376  1.00  0.00     0.009 A 
ENDBRANCH  13  14
ENDBRANCH  10  13
ENDBRANCH   9  10
ENDBRANCH   1   9
BRANCH   4  20
HETATM   20  N2  UNL     1      17.410 -25.150 -53.862  1.00  0.00    -0.355 N 
ATOM     21  H2  UNL     1      16.535 -24.697 -54.124  1.00  0.00     0.166 HD
BRANCH  20  22
HETATM   22  C15 UNL     1      18.384 -24.438 -53.473  1.00  0.00     0.047 A 
HETATM   23  C16 UNL     1      18.977 -24.682 -52.227  1.00  0.00     0.047 A 
HETATM   24  C17 UNL     1      20.064 -23.906 -51.873  1.00  0.00     0.090 A 
HETATM   25  N3  UNL     1      20.556 -22.957 -52.653  1.00  0.00    -0.364 N 
HETATM   26  C18 UNL     1      20.018 -22.690 -53.856  1.00  0.00     0.061 A 
ATOM     27  H3  UNL     1      21.361 -22.417 -52.335  1.00  0.00     0.165 HD
HETATM   28  C19 UNL     1      20.545 -21.690 -54.652  1.00  0.00     0.120 A 
HETATM   29  C29 UNL     1      18.906 -23.439 -54.290  1.00  0.00     0.034 A 
HETATM   30  N4  UNL     1      19.981 -21.449 -55.831  1.00  0.00    -0.350 N 
HETATM   31  C20 UNL     1      18.923 -22.143 -56.270  1.00  0.00     0.111 A 
ATOM     32  H4  UNL     1      20.367 -20.712 -56.421  1.00  0.00     0.166 HD
HETATM   33  C21 UNL     1      18.348 -23.178 -55.490  1.00  0.00     0.033 A 
BRANCH  31  34
HETATM   34  N5  UNL     1      18.398 -21.883 -57.416  1.00  0.00    -0.385 N 
ATOM     35  H52 UNL     1      18.624 -20.992 -57.857  1.00  0.00     0.157 HD
ATOM     36  H51 UNL     1      17.775 -22.555 -57.867  1.00  0.00     0.157 HD
ENDBRANCH  31  34
BRANCH  33  37
HETATM   37  C22 UNL     1      17.201 -23.838 -56.051  1.00  0.00    -0.021 A 
HETATM   38  C23 UNL     1      15.902 -23.543 -55.623  1.00  0.00     0.015 A 
HETATM   39  C24 UNL     1      14.808 -24.126 -56.218  1.00  0.00     0.038 A 
HETATM   40  C25 UNL     1      14.951 -25.027 -57.261  1.00  0.00     0.078 A 
HETATM   41  C27 UNL     1      16.229 -25.314 -57.677  1.00  0.00     0.038 A 
HETATM   42  C28 UNL     1      17.349 -24.730 -57.086  1.00  0.00     0.015 A 
BRANCH  40  43
HETATM   43  O1  UNL     1      13.820 -25.607 -57.850  1.00  0.00    -0.255 OA
BRANCH  43  44
HETATM   44  C26 UNL     1      12.853 -26.296 -57.096  1.00  0.00     0.530 C 
HETATM   45  F1  UNL     1      12.273 -27.225 -57.951  1.00  0.00    -0.144 F 
HETATM   46  F2  UNL     1      11.816 -25.473 -56.695  1.00  0.00    -0.144 F 
HETATM   47  F3  UNL     1      13.356 -26.911 -55.983  1.00  0.00    -0.144 F 
ENDBRANCH  43  44
ENDBRANCH  40  43
ENDBRANCH  33  37
ENDBRANCH  20  22
ENDBRANCH   4  20
TORSDOF 11
ENDMDL
MODEL 4
REMARK VINA RESULT: -7.654023154      3.200      6.769
REMARK  11 active torsions:
REMARK  status: ('A' for Active; 'I' for Inactive)
REMARK    1  A    between atoms: C2_2  and  N1_3 
REMARK    2  A    between atoms: N1_3  and  C3_4 
REMARK    3  A    between atoms: N1_3  and  C10_11 
REMARK    4  A    between atoms: C3_4  and  C4_5 
REMARK    5  A    between atoms: C10_11  and  C11_12 
REMARK    6  A    between atoms: C14_15  and  N2_16 
REMARK    7  A    between atoms: N2_16  and  C15_18 
REMARK    8  A    between atoms: C20_27  and  N5_28 
REMARK    9  A    between atoms: C21_31  and  C22_32 
REMARK   10  A    between atoms: C25_35  and  O1_36 
REMARK   11  A    between atoms: O1_36  and  C26_37 
ROOT
HETATM    1  C11 UNL     1      19.066 -28.022 -53.657  1.00  0.00    -0.009 A 
HETATM    2  C12 UNL     1      19.381 -28.107 -54.995  1.00  0.00     0.013 A 
HETATM    3  C13 UNL     1      18.416 -28.040 -55.983  1.00  0.00     0.030 A 
HETATM    4  C14 UNL     1      17.080 -27.883 -55.684  1.00  0.00     0.034 A 
HETATM    5  C30 UNL     1      16.760 -27.800 -54.350  1.00  0.00     0.052 A 
HETATM    6  C31 UNL     1      17.723 -27.867 -53.355  1.00  0.00     0.054 A 
HETATM    7  C32 UNL     1      17.359 -27.773 -51.970  1.00  0.00     0.100 C 
HETATM    8  N6  UNL     1      17.071 -27.674 -50.865  1.00  0.00    -0.191 NA
ENDROOT
BRANCH   1   9
HETATM    9  C10 UNL     1      20.087 -28.137 -52.617  1.00  0.00     0.313 C 
BRANCH   9  10
HETATM   10  N1  UNL     1      21.103 -27.078 -52.658  1.00  0.00     0.096 N 
BRANCH  10  11
HETATM   11  C2  UNL     1      22.343 -27.690 -52.190  1.00  0.00     0.268 C 
HETATM   12  C1  UNL     1      22.818 -28.779 -53.082  1.00  0.00     0.037 C 
ENDBRANCH  10  11
BRANCH  10  13
HETATM   13  C3  UNL     1      20.748 -26.076 -51.641  1.00  0.00     0.311 C 
BRANCH  13  14
HETATM   14  C4  UNL     1      20.421 -24.761 -52.163  1.00  0.00    -0.030 A 
HETATM   15  C5  UNL     1      19.133 -24.528 -52.658  1.00  0.00     0.009 A 
HETATM   16  C6  UNL     1      18.790 -23.294 -53.186  1.00  0.00     0.001 A 
HETATM   17  C7  UNL     1      19.694 -22.256 -53.242  1.00  0.00     0.000 A 
HETATM   18  C8  UNL     1      20.979 -22.462 -52.757  1.00  0.00     0.001 A 
HETATM   19  C9  UNL     1      21.282 -23.711 -52.238  1.00  0.00     0.009 A 
ENDBRANCH  13  14
ENDBRANCH  10  13
ENDBRANCH   9  10
ENDBRANCH   1   9
BRANCH   4  20
HETATM   20  N2  UNL     1      16.050 -27.801 -56.646  1.00  0.00    -0.355 N 
ATOM     21  H2  UNL     1      16.105 -27.092 -57.377  1.00  0.00     0.166 HD
BRANCH  20  22
HETATM   22  C15 UNL     1      15.058 -28.590 -56.623  1.00  0.00     0.047 A 
HETATM   23  C16 UNL     1      15.264 -29.976 -56.619  1.00  0.00     0.047 A 
HETATM   24  C17 UNL     1      14.148 -30.788 -56.548  1.00  0.00     0.090 A 
HETATM   25  N3  UNL     1      12.915 -30.314 -56.484  1.00  0.00    -0.364 N 
HETATM   26  C18 UNL     1      12.672 -28.991 -56.485  1.00  0.00     0.061 A 
ATOM     27  H3  UNL     1      12.131 -30.965 -56.433  1.00  0.00     0.165 HD
HETATM   28  C19 UNL     1      11.374 -28.518 -56.424  1.00  0.00     0.120 A 
HETATM   29  C29 UNL     1      13.758 -28.096 -56.556  1.00  0.00     0.034 A 
HETATM   30  N4  UNL     1      11.173 -27.205 -56.437  1.00  0.00    -0.350 N 
HETATM   31  C20 UNL     1      12.184 -26.329 -56.505  1.00  0.00     0.111 A 
ATOM     32  H4  UNL     1      10.217 -26.852 -56.392  1.00  0.00     0.166 HD
HETATM   33  C21 UNL     1      13.531 -26.766 -56.568  1.00  0.00     0.033 A 
BRANCH  31  34
HETATM   34  N5  UNL     1      11.956 -25.063 -56.518  1.00  0.00    -0.385 N 
ATOM     35  H52 UNL     1      12.737 -24.435 -56.702  1.00  0.00     0.157 HD
ATOM     36  H51 UNL     1      11.015 -24.702 -56.350  1.00  0.00     0.157 HD
ENDBRANCH  31  34
BRANCH  33  37
HETATM   37  C22 UNL     1      14.532 -25.739 -56.662  1.00  0.00    -0.021 A 
HETATM   38  C23 UNL     1      15.027 -25.308 -57.898  1.00  0.00     0.015 A 
HETATM   39  C24 UNL     1      15.930 -24.273 -57.981  1.00  0.00     0.038 A 
HETATM   40  C25 UNL     1      16.381 -23.621 -56.845  1.00  0.00     0.078 A 
HETATM   41  C27 UNL     1      15.893 -24.049 -55.634  1.00  0.00     0.038 A 
HETATM   42  C28 UNL     1      14.976 -25.095 -55.533  1.00  0.00     0.015 A 
BRANCH  40  43
HETATM   43  O1  UNL     1      17.302 -22.570 -56.957  1.00  0.00    -0.255 OA
BRANCH  43  44
HETATM   44  C26 UNL     1      18.613 -22.769 -57.422  1.00  0.00     0.530 C 
HETATM   45  F1  UNL     1      19.460 -22.433 -56.373  1.00  0.00    -0.144 F 
HETATM   46  F2  UNL     1      18.944 -21.903 -58.448  1.00  0.00    -0.144 F 
HETATM   47  F3  UNL     1      18.859 -24.044 -57.852  1.00  0.00    -0.144 F 
ENDBRANCH  43  44
ENDBRANCH  40  43
ENDBRANCH  33  37
ENDBRANCH  20  22
ENDBRANCH   4  20
TORSDOF 11
ENDMDL
MODEL 5
REMARK VINA RESULT: -7.650906987      3.202      4.452
REMARK  11 active torsions:
REMARK  status: ('A' for Active; 'I' for Inactive)
REMARK    1  A    between atoms: C2_2  and  N1_3 
REMARK    2  A    between atoms: N1_3  and  C3_4 
REMARK    3  A    between atoms: N1_3  and  C10_11 
REMARK    4  A    between atoms: C3_4  and  C4_5 
REMARK    5  A    between atoms: C10_11  and  C11_12 
REMARK    6  A    between atoms: C14_15  and  N2_16 
REMARK    7  A    between atoms: N2_16  and  C15_18 
REMARK    8  A    between atoms: C20_27  and  N5_28 
REMARK    9  A    between atoms: C21_31  and  C22_32 
REMARK   10  A    between atoms: C25_35  and  O1_36 
REMARK   11  A    between atoms: O1_36  and  C26_37 
ROOT
HETATM    1  C11 UNL     1      15.035 -28.105 -52.783  1.00  0.00    -0.009 A 
HETATM    2  C12 UNL     1      14.430 -27.569 -53.897  1.00  0.00     0.013 A 
HETATM    3  C13 UNL     1      14.881 -26.402 -54.488  1.00  0.00     0.030 A 
HETATM    4  C14 UNL     1      15.964 -25.709 -53.993  1.00  0.00     0.034 A 
HETATM    5  C30 UNL     1      16.570 -26.239 -52.880  1.00  0.00     0.052 A 
HETATM    6  C31 UNL     1      16.122 -27.408 -52.283  1.00  0.00     0.054 A 
HETATM    7  C32 UNL     1      16.778 -27.940 -51.123  1.00  0.00     0.100 C 
HETATM    8  N6  UNL     1      17.316 -28.378 -50.211  1.00  0.00    -0.191 NA
ENDROOT
BRANCH   1   9
HETATM    9  C10 UNL     1      14.527 -29.316 -52.139  1.00  0.00     0.313 C 
BRANCH   9  10
HETATM   10  N1  UNL     1      13.323 -29.100 -51.327  1.00  0.00     0.096 N 
BRANCH  10  11
HETATM   11  C2  UNL     1      13.509 -29.893 -50.115  1.00  0.00     0.268 C 
HETATM   12  C1  UNL     1      14.614 -30.878 -50.236  1.00  0.00     0.037 C 
ENDBRANCH  10  11
BRANCH  10  13
HETATM   13  C3  UNL     1      12.189 -29.717 -52.032  1.00  0.00     0.311 C 
BRANCH  13  14
HETATM   14  C4  UNL     1      11.382 -28.798 -52.816  1.00  0.00    -0.030 A 
HETATM   15  C5  UNL     1      10.820 -27.682 -52.187  1.00  0.00     0.009 A 
HETATM   16  C6  UNL     1      10.026 -26.797 -52.897  1.00  0.00     0.001 A 
HETATM   17  C7  UNL     1       9.763 -26.976 -54.237  1.00  0.00     0.000 A 
HETATM   18  C8  UNL     1      10.309 -28.076 -54.884  1.00  0.00     0.001 A 
HETATM   19  C9  UNL     1      11.097 -28.939 -54.139  1.00  0.00     0.009 A 
ENDBRANCH  13  14
ENDBRANCH  10  13
ENDBRANCH   9  10
ENDBRANCH   1   9
BRANCH   4  20
HETATM   20  N2  UNL     1      16.475 -24.518 -54.554  1.00  0.00    -0.355 N 
ATOM     21  H2  UNL     1      16.153 -24.224 -55.477  1.00  0.00     0.166 HD
BRANCH  20  22
HETATM   22  C15 UNL     1      17.324 -23.807 -53.938  1.00  0.00     0.047 A 
HETATM   23  C16 UNL     1      17.274 -23.708 -52.541  1.00  0.00     0.047 A 
HETATM   24  C17 UNL     1      18.250 -22.956 -51.917  1.00  0.00     0.090 A 
HETATM   25  N3  UNL     1      19.214 -22.336 -52.579  1.00  0.00    -0.364 N 
HETATM   26  C18 UNL     1      19.299 -22.403 -53.919  1.00  0.00     0.061 A 
ATOM     27  H3  UNL     1      19.907 -21.794 -52.061  1.00  0.00     0.165 HD
HETATM   28  C19 UNL     1      20.310 -21.741 -54.591  1.00  0.00     0.120 A 
HETATM   29  C29 UNL     1      18.339 -23.151 -54.629  1.00  0.00     0.034 A 
HETATM   30  N4  UNL     1      20.357 -21.824 -55.916  1.00  0.00    -0.350 N 
HETATM   31  C20 UNL     1      19.458 -22.526 -56.618  1.00  0.00     0.111 A 
ATOM     32  H4  UNL     1      21.101 -21.336 -56.414  1.00  0.00     0.166 HD
HETATM   33  C21 UNL     1      18.404 -23.221 -55.975  1.00  0.00     0.033 A 
BRANCH  31  34
HETATM   34  N5  UNL     1      19.529 -22.584 -57.902  1.00  0.00    -0.385 N 
ATOM     35  H52 UNL     1      19.490 -23.501 -58.345  1.00  0.00     0.157 HD
ATOM     36  H51 UNL     1      19.620 -21.732 -58.457  1.00  0.00     0.157 HD
ENDBRANCH  31  34
BRANCH  33  37
HETATM   37  C22 UNL     1      17.486 -23.922 -56.831  1.00  0.00    -0.021 A 
HETATM   38  C23 UNL     1      17.659 -25.275 -57.141  1.00  0.00     0.015 A 
HETATM   39  C24 UNL     1      16.734 -25.955 -57.900  1.00  0.00     0.038 A 
HETATM   40  C25 UNL     1      15.600 -25.324 -58.385  1.00  0.00     0.078 A 
HETATM   41  C27 UNL     1      15.436 -23.995 -58.079  1.00  0.00     0.038 A 
HETATM   42  C28 UNL     1      16.363 -23.292 -57.310  1.00  0.00     0.015 A 
BRANCH  40  43
HETATM   43  O1  UNL     1      14.673 -26.039 -59.156  1.00  0.00    -0.255 OA
BRANCH  43  44
HETATM   44  C26 UNL     1      13.492 -26.569 -58.607  1.00  0.00     0.530 C 
HETATM   45  F1  UNL     1      12.582 -26.669 -59.652  1.00  0.00    -0.144 F 
HETATM   46  F2  UNL     1      12.906 -25.711 -57.695  1.00  0.00    -0.144 F 
HETATM   47  F3  UNL     1      13.662 -27.780 -57.996  1.00  0.00    -0.144 F 
ENDBRANCH  43  44
ENDBRANCH  40  43
ENDBRANCH  33  37
ENDBRANCH  20  22
ENDBRANCH   4  20
TORSDOF 11
ENDMDL
