MODEL 1
REMARK VINA RESULT: -9.182805331      0.000      0.000
REMARK  11 active torsions:
REMARK  status: ('A' for Active; 'I' for Inactive)
REMARK    1  A    between atoms: O1_2  and  C2_3 
REMARK    2  A    between atoms: C5_6  and  N1_7 
REMARK    3  A    between atoms: N1_7  and  C6_8 
REMARK    4  A    between atoms: N3_12  and  C8_14 
REMARK    5  A    between atoms: C10_16  and  C11_17 
REMARK    6  A    between atoms: C17_23  and  C18_24 
REMARK    7  A    between atoms: C18_24  and  O2_25 
REMARK    8  A    between atoms: C18_24  and  C19_27 
REMARK    9  A    between atoms: C23_36  and  O3_37 
REMARK   10  A    between atoms: O3_37  and  C24_38 
REMARK   11  A    between atoms: C24_38  and  C25_39 
ROOT
HETATM    1  C6  UNL     1      17.255 -22.504 -57.176  1.00  0.00     0.217 A 
HETATM    2  N2  UNL     1      18.237 -22.621 -56.151  1.00  0.00    -0.162 N 
ATOM      3  H2  UNL     1      18.129 -23.370 -55.467  1.00  0.00     0.187 HD
HETATM    4  C7  UNL     1      19.261 -21.832 -56.037  1.00  0.00     0.685 A 
HETATM    5  N3  UNL     1      20.170 -21.737 -55.242  1.00  0.00    -0.191 N 
ATOM      6  H3  UNL     1      20.714 -20.948 -55.592  1.00  0.00     0.184 HD
HETATM    7  N4  UNL     1      19.388 -20.776 -57.032  1.00  0.00    -0.200 N 
ATOM      8  H4  UNL     1      20.170 -20.124 -56.988  1.00  0.00     0.183 HD
HETATM    9  C20 UNL     1      18.526 -20.670 -57.951  1.00  0.00     0.135 A 
HETATM   10  C21 UNL     1      17.457 -21.500 -58.061  1.00  0.00     0.108 A 
HETATM   11 CL1  UNL     1      16.317 -21.292 -59.355  1.00  0.00    -0.078 Cl
ENDROOT
BRANCH   5  12
HETATM   12  C8  UNL     1      20.841 -22.121 -54.145  1.00  0.00     0.058 A 
HETATM   13  C9  UNL     1      22.200 -21.682 -54.113  1.00  0.00     0.038 A 
HETATM   14  C10 UNL     1      23.095 -21.976 -53.127  1.00  0.00    -0.048 A 
HETATM   15  C15 UNL     1      22.669 -22.740 -52.077  1.00  0.00     0.009 A 
HETATM   16  C16 UNL     1      21.332 -23.196 -52.067  1.00  0.00     0.013 A 
HETATM   17  C17 UNL     1      20.473 -22.896 -53.070  1.00  0.00     0.003 A 
BRANCH  14  18
HETATM   18  C11 UNL     1      24.535 -21.563 -53.233  1.00  0.00    -0.024 C 
HETATM   19  C12 UNL     1      25.396 -22.707 -53.795  1.00  0.00     0.019 C 
HETATM   20  C13 UNL     1      25.041 -21.304 -51.805  1.00  0.00     0.019 C 
HETATM   21  C14 UNL     1      24.776 -20.331 -54.006  1.00  0.00     0.019 C 
ENDBRANCH  14  18
BRANCH  17  22
HETATM   22  C18 UNL     1      19.066 -23.420 -52.995  1.00  0.00     0.218 C 
BRANCH  22  23
HETATM   23  O2  UNL     1      18.802 -23.448 -51.575  1.00  0.00    -0.385 OA
ATOM     24  H2  UNL     1      18.195 -24.173 -51.483  1.00  0.00     0.210 HD
ENDBRANCH  22  23
BRANCH  22  25
HETATM   25  C19 UNL     1      18.889 -24.851 -53.402  1.00  0.00     0.386 C 
HETATM   26  F1  UNL     1      19.033 -25.826 -52.498  1.00  0.00    -0.211 F 
HETATM   27  F2  UNL     1      17.669 -24.978 -54.089  1.00  0.00    -0.211 F 
ENDBRANCH  22  25
ENDBRANCH  17  22
ENDBRANCH   5  12
BRANCH   1  28
HETATM   28  N1  UNL     1      16.345 -23.287 -57.197  1.00  0.00    -0.385 NA
BRANCH  28  29
HETATM   29  C5  UNL     1      15.627 -24.415 -57.189  1.00  0.00     0.112 A 
HETATM   30  C4  UNL     1      15.865 -25.282 -58.306  1.00  0.00     0.048 A 
HETATM   31  C3  UNL     1      15.210 -26.439 -58.399  1.00  0.00     0.043 A 
HETATM   32  C2  UNL     1      14.250 -26.833 -57.385  1.00  0.00     0.101 A 
HETATM   33  C23 UNL     1      13.981 -26.027 -56.285  1.00  0.00     0.105 A 
HETATM   34  C22 UNL     1      14.751 -24.831 -56.310  1.00  0.00     0.084 A 
BRANCH  32  35
HETATM   35  O1  UNL     1      13.633 -28.040 -57.571  1.00  0.00    -0.353 OA
HETATM   36  C1  UNL     1      14.094 -29.274 -57.131  1.00  0.00     0.210 C 
ENDBRANCH  32  35
BRANCH  33  37
HETATM   37  O3  UNL     1      13.123 -26.406 -55.400  1.00  0.00    -0.344 OA
BRANCH  37  38
HETATM   38  C24 UNL     1      12.402 -26.961 -54.518  1.00  0.00     0.214 C 
BRANCH  38  39
HETATM   39  C25 UNL     1      10.956 -27.335 -54.796  1.00  0.00    -0.034 A 
HETATM   40  C26 UNL     1      10.704 -28.127 -55.877  1.00  0.00     0.009 A 
HETATM   41  C27 UNL     1       9.419 -28.596 -56.197  1.00  0.00     0.001 A 
HETATM   42  C28 UNL     1       8.373 -28.230 -55.382  1.00  0.00     0.000 A 
HETATM   43  C29 UNL     1       8.610 -27.407 -54.258  1.00  0.00     0.001 A 
HETATM   44  C30 UNL     1       9.895 -27.003 -54.023  1.00  0.00     0.009 A 
ENDBRANCH  38  39
ENDBRANCH  37  38
ENDBRANCH  33  37
ENDBRANCH  28  29
ENDBRANCH   1  28
TORSDOF 11
ENDMDL
MODEL 2
REMARK VINA RESULT: -8.842182572      3.636      6.579
REMARK  11 active torsions:
REMARK  status: ('A' for Active; 'I' for Inactive)
REMARK    1  A    between atoms: O1_2  and  C2_3 
REMARK    2  A    between atoms: C5_6  and  N1_7 
REMARK    3  A    between atoms: N1_7  and  C6_8 
REMARK    4  A    between atoms: N3_12  and  C8_14 
REMARK    5  A    between atoms: C10_16  and  C11_17 
REMARK    6  A    between atoms: C17_23  and  C18_24 
REMARK    7  A    between atoms: C18_24  and  O2_25 
REMARK    8  A    between atoms: C18_24  and  C19_27 
REMARK    9  A    between atoms: C23_36  and  O3_37 
REMARK   10  A    between atoms: O3_37  and  C24_38 
REMARK   11  A    between atoms: C24_38  and  C25_39 
ROOT
HETATM    1  C6  UNL     1      14.231 -25.877 -56.031  1.00  0.00     0.217 A 
HETATM    2  N2  UNL     1      15.390 -25.068 -55.857  1.00  0.00    -0.162 N 
ATOM      3  H2  UNL     1      15.682 -24.845 -54.905  1.00  0.00     0.187 HD
HETATM    4  C7  UNL     1      16.098 -24.598 -56.838  1.00  0.00     0.685 A 
HETATM    5  N3  UNL     1      17.072 -23.880 -56.909  1.00  0.00    -0.191 N 
ATOM      6  H3  UNL     1      17.240 -23.802 -57.912  1.00  0.00     0.184 HD
HETATM    7  N4  UNL     1      15.658 -24.938 -58.184  1.00  0.00    -0.200 N 
ATOM      8  H4  UNL     1      16.174 -24.591 -58.992  1.00  0.00     0.183 HD
HETATM    9  C20 UNL     1      14.636 -25.663 -58.348  1.00  0.00     0.135 A 
HETATM   10  C21 UNL     1      13.901 -26.149 -57.315  1.00  0.00     0.108 A 
HETATM   11 CL1  UNL     1      12.511 -27.143 -57.623  1.00  0.00    -0.078 Cl
ENDROOT
BRANCH   5  12
HETATM   12  C8  UNL     1      18.047 -23.135 -56.367  1.00  0.00     0.058 A 
HETATM   13  C9  UNL     1      18.384 -23.504 -55.028  1.00  0.00     0.038 A 
HETATM   14  C10 UNL     1      19.310 -22.873 -54.252  1.00  0.00    -0.048 A 
HETATM   15  C15 UNL     1      19.985 -21.812 -54.786  1.00  0.00     0.009 A 
HETATM   16  C16 UNL     1      19.685 -21.413 -56.108  1.00  0.00     0.013 A 
HETATM   17  C17 UNL     1      18.748 -22.053 -56.847  1.00  0.00     0.003 A 
BRANCH  14  18
HETATM   18  C11 UNL     1      19.519 -23.263 -52.816  1.00  0.00    -0.024 C 
HETATM   19  C12 UNL     1      18.182 -23.299 -52.056  1.00  0.00     0.019 C 
HETATM   20  C13 UNL     1      20.358 -22.155 -52.160  1.00  0.00     0.019 C 
HETATM   21  C14 UNL     1      20.243 -24.531 -52.612  1.00  0.00     0.019 C 
ENDBRANCH  14  18
BRANCH  17  22
HETATM   22  C18 UNL     1      18.477 -21.569 -58.244  1.00  0.00     0.218 C 
BRANCH  22  23
HETATM   23  O2  UNL     1      19.541 -20.619 -58.474  1.00  0.00    -0.385 OA
ATOM     24  H2  UNL     1      19.371 -19.945 -57.827  1.00  0.00     0.210 HD
ENDBRANCH  22  23
BRANCH  22  25
HETATM   25  C19 UNL     1      17.239 -20.741 -58.410  1.00  0.00     0.386 C 
HETATM   26  F1  UNL     1      17.142 -19.555 -57.801  1.00  0.00    -0.211 F 
HETATM   27  F2  UNL     1      16.953 -20.626 -59.782  1.00  0.00    -0.211 F 
ENDBRANCH  22  25
ENDBRANCH  17  22
ENDBRANCH   5  12
BRANCH   1  28
HETATM   28  N1  UNL     1      13.646 -26.266 -55.058  1.00  0.00    -0.385 NA
BRANCH  28  29
HETATM   29  C5  UNL     1      13.327 -26.901 -53.925  1.00  0.00     0.112 A 
HETATM   30  C4  UNL     1      11.919 -26.998 -53.671  1.00  0.00     0.048 A 
HETATM   31  C3  UNL     1      11.484 -27.617 -52.574  1.00  0.00     0.043 A 
HETATM   32  C2  UNL     1      12.418 -28.192 -51.625  1.00  0.00     0.101 A 
HETATM   33  C23 UNL     1      13.792 -28.123 -51.824  1.00  0.00     0.105 A 
HETATM   34  C22 UNL     1      14.114 -27.444 -53.031  1.00  0.00     0.084 A 
BRANCH  32  35
HETATM   35  O1  UNL     1      11.870 -28.808 -50.533  1.00  0.00    -0.353 OA
HETATM   36  C1  UNL     1      10.561 -29.257 -50.413  1.00  0.00     0.210 C 
ENDBRANCH  32  35
BRANCH  33  37
HETATM   37  O3  UNL     1      14.597 -28.645 -50.962  1.00  0.00    -0.344 OA
BRANCH  37  38
HETATM   38  C24 UNL     1      15.525 -28.998 -50.175  1.00  0.00     0.214 C 
BRANCH  38  39
HETATM   39  C25 UNL     1      16.962 -28.558 -50.397  1.00  0.00    -0.034 A 
HETATM   40  C26 UNL     1      17.907 -29.024 -49.532  1.00  0.00     0.009 A 
HETATM   41  C27 UNL     1      19.277 -28.744 -49.674  1.00  0.00     0.001 A 
HETATM   42  C28 UNL     1      19.673 -27.960 -50.732  1.00  0.00     0.000 A 
HETATM   43  C29 UNL     1      18.711 -27.463 -51.639  1.00  0.00     0.001 A 
HETATM   44  C30 UNL     1      17.401 -27.791 -51.423  1.00  0.00     0.009 A 
ENDBRANCH  38  39
ENDBRANCH  37  38
ENDBRANCH  33  37
ENDBRANCH  28  29
ENDBRANCH   1  28
TORSDOF 11
ENDMDL
MODEL 3
REMARK VINA RESULT: -8.621551835      1.552      2.617
REMARK  11 active torsions:
REMARK  status: ('A' for Active; 'I' for Inactive)
REMARK    1  A    between atoms: O1_2  and  C2_3 
REMARK    2  A    between atoms: C5_6  and  N1_7 
REMARK    3  A    between atoms: N1_7  and  C6_8 
REMARK    4  A    between atoms: N3_12  and  C8_14 
REMARK    5  A    between atoms: C10_16  and  C11_17 
REMARK    6  A    between atoms: C17_23  and  C18_24 
REMARK    7  A    between atoms: C18_24  and  O2_25 
REMARK    8  A    between atoms: C18_24  and  C19_27 
REMARK    9  A    between atoms: C23_36  and  O3_37 
REMARK   10  A    between atoms: O3_37  and  C24_38 
REMARK   11  A    between atoms: C24_38  and  C25_39 
ROOT
HETATM    1  C6  UNL     1      17.270 -22.450 -57.217  1.00  0.00     0.217 A 
HETATM    2  N2  UNL     1      18.231 -22.593 -56.175  1.00  0.00    -0.162 N 
ATOM      3  H2  UNL     1      18.093 -23.341 -55.494  1.00  0.00     0.187 HD
HETATM    4  C7  UNL     1      19.270 -21.828 -56.039  1.00  0.00     0.685 A 
HETATM    5  N3  UNL     1      20.167 -21.757 -55.227  1.00  0.00    -0.191 N 
ATOM      6  H3  UNL     1      20.735 -20.979 -55.564  1.00  0.00     0.184 HD
HETATM    7  N4  UNL     1      19.439 -20.773 -57.028  1.00  0.00    -0.200 N 
ATOM      8  H4  UNL     1      20.236 -20.139 -56.967  1.00  0.00     0.183 HD
HETATM    9  C20 UNL     1      18.597 -20.644 -57.962  1.00  0.00     0.135 A 
HETATM   10  C21 UNL     1      17.512 -21.449 -58.095  1.00  0.00     0.108 A 
HETATM   11 CL1  UNL     1      16.401 -21.210 -59.408  1.00  0.00    -0.078 Cl
ENDROOT
BRANCH   5  12
HETATM   12  C8  UNL     1      20.808 -22.159 -54.119  1.00  0.00     0.058 A 
HETATM   13  C9  UNL     1      22.176 -21.751 -54.060  1.00  0.00     0.038 A 
HETATM   14  C10 UNL     1      23.046 -22.069 -53.060  1.00  0.00    -0.048 A 
HETATM   15  C15 UNL     1      22.584 -22.826 -52.020  1.00  0.00     0.009 A 
HETATM   16  C16 UNL     1      21.237 -23.252 -52.037  1.00  0.00     0.013 A 
HETATM   17  C17 UNL     1      20.403 -22.930 -53.054  1.00  0.00     0.003 A 
BRANCH  14  18
HETATM   18  C11 UNL     1      24.496 -21.687 -53.137  1.00  0.00    -0.024 C 
HETATM   19  C12 UNL     1      25.043 -21.320 -51.746  1.00  0.00     0.019 C 
HETATM   20  C13 UNL     1      24.588 -20.410 -53.986  1.00  0.00     0.019 C 
HETATM   21  C14 UNL     1      25.374 -22.689 -53.769  1.00  0.00     0.019 C 
ENDBRANCH  14  18
BRANCH  17  22
HETATM   22  C18 UNL     1      18.984 -23.422 -53.008  1.00  0.00     0.218 C 
BRANCH  22  23
HETATM   23  O2  UNL     1      18.678 -23.407 -51.595  1.00  0.00    -0.385 OA
ATOM     24  H2  UNL     1      19.212 -22.693 -51.267  1.00  0.00     0.210 HD
ENDBRANCH  22  23
BRANCH  22  25
HETATM   25  C19 UNL     1      18.788 -24.859 -53.382  1.00  0.00     0.386 C 
HETATM   26  F1  UNL     1      18.940 -25.817 -52.461  1.00  0.00    -0.211 F 
HETATM   27  F2  UNL     1      17.555 -24.990 -54.045  1.00  0.00    -0.211 F 
ENDBRANCH  22  25
ENDBRANCH  17  22
ENDBRANCH   5  12
BRANCH   1  28
HETATM   28  N1  UNL     1      16.343 -23.212 -57.257  1.00  0.00    -0.385 NA
BRANCH  28  29
HETATM   29  C5  UNL     1      15.579 -24.304 -57.152  1.00  0.00     0.112 A 
HETATM   30  C4  UNL     1      15.449 -25.061 -58.364  1.00  0.00     0.048 A 
HETATM   31  C3  UNL     1      14.716 -26.174 -58.376  1.00  0.00     0.043 A 
HETATM   32  C2  UNL     1      14.039 -26.630 -57.177  1.00  0.00     0.101 A 
HETATM   33  C23 UNL     1      14.131 -25.931 -55.978  1.00  0.00     0.105 A 
HETATM   34  C22 UNL     1      14.945 -24.773 -56.108  1.00  0.00     0.084 A 
BRANCH  32  35
HETATM   35  O1  UNL     1      13.314 -27.785 -57.293  1.00  0.00    -0.353 OA
HETATM   36  C1  UNL     1      13.779 -29.073 -57.061  1.00  0.00     0.210 C 
ENDBRANCH  32  35
BRANCH  33  37
HETATM   37  O3  UNL     1      13.518 -26.364 -54.930  1.00  0.00    -0.344 OA
BRANCH  37  38
HETATM   38  C24 UNL     1      13.088 -26.924 -53.877  1.00  0.00     0.214 C 
BRANCH  38  39
HETATM   39  C25 UNL     1      14.032 -27.598 -52.896  1.00  0.00    -0.034 A 
HETATM   40  C26 UNL     1      15.357 -27.287 -52.977  1.00  0.00     0.009 A 
HETATM   41  C27 UNL     1      16.316 -27.791 -52.082  1.00  0.00     0.001 A 
HETATM   42  C28 UNL     1      15.892 -28.639 -51.086  1.00  0.00     0.000 A 
HETATM   43  C29 UNL     1      14.525 -28.978 -50.984  1.00  0.00     0.001 A 
HETATM   44  C30 UNL     1      13.663 -28.435 -51.897  1.00  0.00     0.009 A 
ENDBRANCH  38  39
ENDBRANCH  37  38
ENDBRANCH  33  37
ENDBRANCH  28  29
ENDBRANCH   1  28
TORSDOF 11
ENDMDL
MODEL 4
REMARK VINA RESULT: -8.529111870      3.707      9.821
REMARK  11 active torsions:
REMARK  status: ('A' for Active; 'I' for Inactive)
REMARK    1  A    between atoms: O1_2  and  C2_3 
REMARK    2  A    between atoms: C5_6  and  N1_7 
REMARK    3  A    between atoms: N1_7  and  C6_8 
REMARK    4  A    between atoms: N3_12  and  C8_14 
REMARK    5  A    between atoms: C10_16  and  C11_17 
REMARK    6  A    between atoms: C17_23  and  C18_24 
REMARK    7  A    between atoms: C18_24  and  O2_25 
REMARK    8  A    between atoms: C18_24  and  C19_27 
REMARK    9  A    between atoms: C23_36  and  O3_37 
REMARK   10  A    between atoms: O3_37  and  C24_38 
REMARK   11  A    between atoms: C24_38  and  C25_39 
ROOT
HETATM    1  C6  UNL     1      17.530 -26.778 -52.178  1.00  0.00     0.217 A 
HETATM    2  N2  UNL     1      16.463 -26.732 -53.121  1.00  0.00    -0.162 N 
ATOM      3  H2  UNL     1      16.347 -25.881 -53.672  1.00  0.00     0.187 HD
HETATM    4  C7  UNL     1      15.632 -27.708 -53.320  1.00  0.00     0.685 A 
HETATM    5  N3  UNL     1      14.660 -27.859 -54.029  1.00  0.00    -0.191 N 
ATOM      6  H3  UNL     1      14.350 -28.807 -53.814  1.00  0.00     0.184 HD
HETATM    7  N4  UNL     1      15.828 -28.910 -52.521  1.00  0.00    -0.200 N 
ATOM      8  H4  UNL     1      15.202 -29.706 -52.633  1.00  0.00     0.183 HD
HETATM    9  C20 UNL     1      16.778 -28.963 -51.688  1.00  0.00     0.135 A 
HETATM   10  C21 UNL     1      17.642 -27.936 -51.485  1.00  0.00     0.108 A 
HETATM   11 CL1  UNL     1      18.924 -28.088 -50.324  1.00  0.00    -0.078 Cl
ENDROOT
BRANCH   5  12
HETATM   12  C8  UNL     1      13.776 -27.439 -54.946  1.00  0.00     0.058 A 
HETATM   13  C9  UNL     1      14.326 -27.289 -56.257  1.00  0.00     0.038 A 
HETATM   14  C10 UNL     1      13.642 -26.839 -57.346  1.00  0.00    -0.048 A 
HETATM   15  C15 UNL     1      12.325 -26.512 -57.191  1.00  0.00     0.009 A 
HETATM   16  C16 UNL     1      11.739 -26.646 -55.913  1.00  0.00     0.013 A 
HETATM   17  C17 UNL     1      12.451 -27.083 -54.847  1.00  0.00     0.003 A 
BRANCH  14  18
HETATM   18  C11 UNL     1      14.333 -26.609 -58.660  1.00  0.00    -0.024 C 
HETATM   19  C12 UNL     1      15.273 -27.779 -58.999  1.00  0.00     0.019 C 
HETATM   20  C13 UNL     1      15.228 -25.371 -58.496  1.00  0.00     0.019 C 
HETATM   21  C14 UNL     1      13.436 -26.345 -59.800  1.00  0.00     0.019 C 
ENDBRANCH  14  18
BRANCH  17  22
HETATM   22  C18 UNL     1      11.763 -27.195 -53.516  1.00  0.00     0.218 C 
BRANCH  22  23
HETATM   23  O2  UNL     1      11.920 -28.592 -53.182  1.00  0.00    -0.385 OA
ATOM     24  H2  UNL     1      12.244 -28.566 -52.290  1.00  0.00     0.210 HD
ENDBRANCH  22  23
BRANCH  22  25
HETATM   25  C19 UNL     1      10.276 -27.016 -53.542  1.00  0.00     0.386 C 
HETATM   26  F1  UNL     1       9.479 -28.070 -53.753  1.00  0.00    -0.211 F 
HETATM   27  F2  UNL     1       9.885 -26.313 -52.389  1.00  0.00    -0.211 F 
ENDBRANCH  22  25
ENDBRANCH  17  22
ENDBRANCH   5  12
BRANCH   1  28
HETATM   28  N1  UNL     1      18.248 -25.823 -52.069  1.00  0.00    -0.385 NA
BRANCH  28  29
HETATM   29  C5  UNL     1      19.069 -24.802 -52.338  1.00  0.00     0.112 A 
HETATM   30  C4  UNL     1      20.021 -24.514 -51.304  1.00  0.00     0.048 A 
HETATM   31  C3  UNL     1      20.895 -23.521 -51.466  1.00  0.00     0.043 A 
HETATM   32  C2  UNL     1      20.894 -22.719 -52.674  1.00  0.00     0.101 A 
HETATM   33  C23 UNL     1      19.990 -22.956 -53.704  1.00  0.00     0.105 A 
HETATM   34  C22 UNL     1      19.124 -24.042 -53.402  1.00  0.00     0.084 A 
BRANCH  32  35
HETATM   35  O1  UNL     1      21.833 -21.726 -52.744  1.00  0.00    -0.353 OA
HETATM   36  C1  UNL     1      23.109 -21.763 -52.197  1.00  0.00     0.210 C 
ENDBRANCH  32  35
BRANCH  33  37
HETATM   37  O3  UNL     1      20.016 -22.226 -54.766  1.00  0.00    -0.344 OA
BRANCH  37  38
HETATM   38  C24 UNL     1      20.117 -21.690 -55.910  1.00  0.00     0.214 C 
BRANCH  38  39
HETATM   39  C25 UNL     1      18.932 -21.611 -56.857  1.00  0.00    -0.034 A 
HETATM   40  C26 UNL     1      17.977 -22.579 -56.757  1.00  0.00     0.009 A 
HETATM   41  C27 UNL     1      16.803 -22.577 -57.529  1.00  0.00     0.001 A 
HETATM   42  C28 UNL     1      16.618 -21.551 -58.426  1.00  0.00     0.000 A 
HETATM   43  C29 UNL     1      17.596 -20.538 -58.549  1.00  0.00     0.001 A 
HETATM   44  C30 UNL     1      18.705 -20.621 -57.753  1.00  0.00     0.009 A 
ENDBRANCH  38  39
ENDBRANCH  37  38
ENDBRANCH  33  37
ENDBRANCH  28  29
ENDBRANCH   1  28
TORSDOF 11
ENDMDL
MODEL 5
REMARK VINA RESULT: -8.523859278      1.805      4.023
REMARK  11 active torsions:
REMARK  status: ('A' for Active; 'I' for Inactive)
REMARK    1  A    between atoms: O1_2  and  C2_3 
REMARK    2  A    between atoms: C5_6  and  N1_7 
REMARK    3  A    between atoms: N1_7  and  C6_8 
REMARK    4  A    between atoms: N3_12  and  C8_14 
REMARK    5  A    between atoms: C10_16  and  C11_17 
REMARK    6  A    between atoms: C17_23  and  C18_24 
REMARK    7  A    between atoms: C18_24  and  O2_25 
REMARK    8  A    between atoms: C18_24  and  C19_27 
REMARK    9  A    between atoms: C23_36  and  O3_37 
REMARK   10  A    between atoms: O3_37  and  C24_38 
REMARK   11  A    between atoms: C24_38  and  C25_39 
ROOT
HETATM    1  C6  UNL     1      17.361 -22.523 -57.195  1.00  0.00     0.217 A 
HETATM    2  N2  UNL     1      18.331 -22.641 -56.159  1.00  0.00    -0.162 N 
ATOM      3  H2  UNL     1      18.243 -23.420 -55.505  1.00  0.00     0.187 HD
HETATM    4  C7  UNL     1      19.320 -21.817 -55.996  1.00  0.00     0.685 A 
HETATM    5  N3  UNL     1      20.213 -21.718 -55.183  1.00  0.00    -0.191 N 
ATOM      6  H3  UNL     1      20.730 -20.895 -55.492  1.00  0.00     0.184 HD
HETATM    7  N4  UNL     1      19.420 -20.719 -56.948  1.00  0.00    -0.200 N 
ATOM      8  H4  UNL     1      20.175 -20.039 -56.865  1.00  0.00     0.183 HD
HETATM    9  C20 UNL     1      18.569 -20.611 -57.876  1.00  0.00     0.135 A 
HETATM   10  C21 UNL     1      17.536 -21.478 -58.037  1.00  0.00     0.108 A 
HETATM   11 CL1  UNL     1      16.409 -21.264 -59.341  1.00  0.00    -0.078 Cl
ENDROOT
BRANCH   5  12
HETATM   12  C8  UNL     1      20.881 -22.118 -54.090  1.00  0.00     0.058 A 
HETATM   13  C9  UNL     1      22.247 -21.699 -54.060  1.00  0.00     0.038 A 
HETATM   14  C10 UNL     1      23.140 -22.012 -53.079  1.00  0.00    -0.048 A 
HETATM   15  C15 UNL     1      22.707 -22.776 -52.032  1.00  0.00     0.009 A 
HETATM   16  C16 UNL     1      21.363 -23.212 -52.020  1.00  0.00     0.013 A 
HETATM   17  C17 UNL     1      20.505 -22.894 -53.019  1.00  0.00     0.003 A 
BRANCH  14  18
HETATM   18  C11 UNL     1      24.586 -21.619 -53.187  1.00  0.00    -0.024 C 
HETATM   19  C12 UNL     1      25.164 -21.266 -51.806  1.00  0.00     0.019 C 
HETATM   20  C13 UNL     1      24.647 -20.331 -54.022  1.00  0.00     0.019 C 
HETATM   21  C14 UNL     1      25.454 -22.607 -53.853  1.00  0.00     0.019 C 
ENDBRANCH  14  18
BRANCH  17  22
HETATM   22  C18 UNL     1      19.091 -23.397 -52.942  1.00  0.00     0.218 C 
BRANCH  22  23
HETATM   23  O2  UNL     1      18.838 -23.451 -51.521  1.00  0.00    -0.385 OA
ATOM     24  H2  UNL     1      18.177 -24.129 -51.445  1.00  0.00     0.210 HD
ENDBRANCH  22  23
BRANCH  22  25
HETATM   25  C19 UNL     1      18.889 -24.817 -53.377  1.00  0.00     0.386 C 
HETATM   26  F1  UNL     1      19.085 -25.816 -52.510  1.00  0.00    -0.211 F 
HETATM   27  F2  UNL     1      17.629 -24.926 -53.993  1.00  0.00    -0.211 F 
ENDBRANCH  22  25
ENDBRANCH  17  22
ENDBRANCH   5  12
BRANCH   1  28
HETATM   28  N1  UNL     1      16.484 -23.340 -57.262  1.00  0.00    -0.385 NA
BRANCH  28  29
HETATM   29  C5  UNL     1      15.813 -24.493 -57.354  1.00  0.00     0.112 A 
HETATM   30  C4  UNL     1      14.614 -24.551 -56.569  1.00  0.00     0.048 A 
HETATM   31  C3  UNL     1      13.860 -25.650 -56.590  1.00  0.00     0.043 A 
HETATM   32  C2  UNL     1      14.241 -26.797 -57.392  1.00  0.00     0.101 A 
HETATM   33  C23 UNL     1      15.394 -26.792 -58.168  1.00  0.00     0.105 A 
HETATM   34  C22 UNL     1      16.096 -25.560 -58.056  1.00  0.00     0.084 A 
BRANCH  32  35
HETATM   35  O1  UNL     1      13.399 -27.874 -57.346  1.00  0.00    -0.353 OA
HETATM   36  C1  UNL     1      12.121 -27.895 -56.803  1.00  0.00     0.210 C 
ENDBRANCH  32  35
BRANCH  33  37
HETATM   37  O3  UNL     1      15.704 -27.827 -58.871  1.00  0.00    -0.344 OA
BRANCH  37  38
HETATM   38  C24 UNL     1      16.144 -28.894 -59.395  1.00  0.00     0.214 C 
BRANCH  38  39
HETATM   39  C25 UNL     1      17.075 -29.825 -58.637  1.00  0.00    -0.034 A 
HETATM   40  C26 UNL     1      17.658 -29.349 -57.501  1.00  0.00     0.009 A 
HETATM   41  C27 UNL     1      18.483 -30.134 -56.678  1.00  0.00     0.001 A 
HETATM   42  C28 UNL     1      18.711 -31.440 -57.045  1.00  0.00     0.000 A 
HETATM   43  C29 UNL     1      18.119 -31.955 -58.220  1.00  0.00     0.001 A 
HETATM   44  C30 UNL     1      17.327 -31.117 -58.956  1.00  0.00     0.009 A 
ENDBRANCH  38  39
ENDBRANCH  37  38
ENDBRANCH  33  37
ENDBRANCH  28  29
ENDBRANCH   1  28
TORSDOF 11
ENDMDL
