MODEL 1
REMARK VINA RESULT: -7.091511333      0.000      0.000
REMARK  8 active torsions:
REMARK  status: ('A' for Active; 'I' for Inactive)
REMARK    1  A    between atoms: C3_3  and  O1_4 
REMARK    2  A    between atoms: O1_4  and  C4_5 
REMARK    3  A    between atoms: C4_5  and  C5_6 
REMARK    4  A    between atoms: C5_6  and  O2_7 
REMARK    5  A    between atoms: O2_7  and  C6_8 
REMARK    6  A    between atoms: C6_8  and  C7_9 
REMARK    7  A    between atoms: C10_15  and  N2_16 
REMARK    8  A    between atoms: C15_24  and  N4_25 
ROOT
HETATM    1  C1  UNL     1       0.451  11.591  -4.734  1.00  0.00     0.014 C 
HETATM    2  C2  UNL     1      -0.201  12.527  -5.080  1.00  0.00    -0.091 C 
HETATM    3  C3  UNL     1      -1.017  13.712  -5.485  1.00  0.00     0.260 C 
ENDROOT
BRANCH   3   4
HETATM    4  O1  UNL     1      -0.304  14.833  -5.124  1.00  0.00    -0.377 OA
BRANCH   4   5
HETATM    5  C4  UNL     1      -1.015  16.014  -5.025  1.00  0.00     0.195 C 
BRANCH   5   6
HETATM    6  C5  UNL     1       0.074  17.042  -5.494  1.00  0.00     0.194 C 
BRANCH   6   7
HETATM    7  O2  UNL     1      -0.516  17.848  -6.332  1.00  0.00    -0.385 OA
BRANCH   7   8
HETATM    8  C6  UNL     1      -1.781  18.190  -6.481  1.00  0.00     0.207 C 
BRANCH   8   9
HETATM    9  C7  UNL     1      -1.989  19.691  -6.662  1.00  0.00    -0.011 A 
HETATM   10  C8  UNL     1      -1.077  20.518  -6.071  1.00  0.00     0.062 A 
HETATM   11  S1  UNL     1      -1.813  22.080  -6.173  1.00  0.00    -0.082 SA
HETATM   12  C9  UNL     1      -3.266  21.589  -6.972  1.00  0.00     0.104 A 
HETATM   13  N1  UNL     1      -4.345  22.300  -7.460  1.00  0.00    -0.184 N 
HETATM   14  C16 UNL     1      -3.118  20.259  -7.127  1.00  0.00     0.051 A 
HETATM   15  C10 UNL     1      -5.302  21.672  -8.133  1.00  0.00     0.682 A 
ATOM     16  H1  UNL     1      -4.408  23.307  -7.304  1.00  0.00     0.185 HD
HETATM   17  N3  UNL     1      -5.187  20.364  -8.316  1.00  0.00    -0.176 N 
HETATM   18  C15 UNL     1      -4.155  19.594  -7.856  1.00  0.00     0.128 A 
ATOM     19  H3  UNL     1      -5.927  19.896  -8.841  1.00  0.00     0.186 HD
BRANCH  15  20
HETATM   20  N2  UNL     1      -6.364  22.408  -8.644  1.00  0.00    -0.213 N 
HETATM   21  C11 UNL     1      -6.991  23.531  -7.980  1.00  0.00     0.167 C 
HETATM   22  C12 UNL     1      -8.395  22.967  -7.622  1.00  0.00     0.188 C 
HETATM   23  O3  UNL     1      -9.036  22.837  -8.834  1.00  0.00    -0.388 OA
HETATM   24  C13 UNL     1      -8.511  21.869  -9.652  1.00  0.00     0.188 C 
HETATM   25  C14 UNL     1      -7.008  22.061  -9.925  1.00  0.00     0.167 C 
ENDBRANCH  15  20
BRANCH  18  26
HETATM   26  N4  UNL     1      -4.183  18.391  -8.138  1.00  0.00    -0.384 N 
ATOM     27  H42 UNL     1      -3.467  17.884  -8.657  1.00  0.00     0.157 HD
ATOM     28  H41 UNL     1      -5.010  17.867  -7.849  1.00  0.00     0.157 HD
ENDBRANCH  18  26
ENDBRANCH   8   9
ENDBRANCH   7   8
ENDBRANCH   6   7
ENDBRANCH   5   6
ENDBRANCH   4   5
ENDBRANCH   3   4
TORSDOF 8
ENDMDL
MODEL 2
REMARK VINA RESULT: -6.823146809      2.542      3.668
REMARK  8 active torsions:
REMARK  status: ('A' for Active; 'I' for Inactive)
REMARK    1  A    between atoms: C3_3  and  O1_4 
REMARK    2  A    between atoms: O1_4  and  C4_5 
REMARK    3  A    between atoms: C4_5  and  C5_6 
REMARK    4  A    between atoms: C5_6  and  O2_7 
REMARK    5  A    between atoms: O2_7  and  C6_8 
REMARK    6  A    between atoms: C6_8  and  C7_9 
REMARK    7  A    between atoms: C10_15  and  N2_16 
REMARK    8  A    between atoms: C15_24  and  N4_25 
ROOT
HETATM    1  C1  UNL     1       0.517  11.511  -4.753  1.00  0.00     0.014 C 
HETATM    2  C2  UNL     1      -0.078  12.520  -4.975  1.00  0.00    -0.091 C 
HETATM    3  C3  UNL     1      -0.827  13.790  -5.224  1.00  0.00     0.260 C 
ENDROOT
BRANCH   3   4
HETATM    4  O1  UNL     1      -0.163  14.787  -4.545  1.00  0.00    -0.377 OA
BRANCH   4   5
HETATM    5  C4  UNL     1      -0.147  14.692  -3.166  1.00  0.00     0.195 C 
BRANCH   5   6
HETATM    6  C5  UNL     1       0.967  15.742  -2.822  1.00  0.00     0.194 C 
BRANCH   6   7
HETATM    7  O2  UNL     1       1.259  16.349  -3.938  1.00  0.00    -0.385 OA
BRANCH   7   8
HETATM    8  C6  UNL     1       1.561  17.606  -4.203  1.00  0.00     0.207 C 
BRANCH   8   9
HETATM    9  C7  UNL     1       1.271  18.011  -5.645  1.00  0.00    -0.011 A 
HETATM   10  C8  UNL     1       2.348  18.205  -6.461  1.00  0.00     0.062 A 
HETATM   11  S1  UNL     1       1.674  18.982  -7.853  1.00  0.00    -0.082 SA
HETATM   12  C9  UNL     1       0.032  19.020  -7.311  1.00  0.00     0.104 A 
HETATM   13  N1  UNL     1      -1.138  19.440  -7.915  1.00  0.00    -0.184 N 
HETATM   14  C16 UNL     1       0.076  18.435  -6.098  1.00  0.00     0.051 A 
HETATM   15  C10 UNL     1      -2.300  19.263  -7.300  1.00  0.00     0.682 A 
ATOM     16  H1  UNL     1      -1.108  19.886  -8.833  1.00  0.00     0.185 HD
HETATM   17  N3  UNL     1      -2.300  18.681  -6.109  1.00  0.00    -0.176 N 
HETATM   18  C15 UNL     1      -1.185  18.248  -5.447  1.00  0.00     0.128 A 
ATOM     19  H3  UNL     1      -3.202  18.546  -5.651  1.00  0.00     0.186 HD
BRANCH  15  20
HETATM   20  N2  UNL     1      -3.469  19.663  -7.936  1.00  0.00    -0.213 N 
HETATM   21  C11 UNL     1      -3.815  21.033  -8.253  1.00  0.00     0.167 C 
HETATM   22  C12 UNL     1      -5.008  21.307  -7.293  1.00  0.00     0.188 C 
HETATM   23  O3  UNL     1      -6.035  20.533  -7.786  1.00  0.00    -0.388 OA
HETATM   24  C13 UNL     1      -5.838  19.182  -7.658  1.00  0.00     0.188 C 
HETATM   25  C14 UNL     1      -4.525  18.700  -8.304  1.00  0.00     0.167 C 
ENDBRANCH  15  20
BRANCH  18  26
HETATM   26  N4  UNL     1      -1.359  17.699  -4.354  1.00  0.00    -0.384 N 
ATOM     27  H42 UNL     1      -1.698  16.747  -4.213  1.00  0.00     0.157 HD
ATOM     28  H41 UNL     1      -1.173  18.256  -3.520  1.00  0.00     0.157 HD
ENDBRANCH  18  26
ENDBRANCH   8   9
ENDBRANCH   7   8
ENDBRANCH   6   7
ENDBRANCH   5   6
ENDBRANCH   4   5
ENDBRANCH   3   4
TORSDOF 8
ENDMDL
MODEL 3
REMARK VINA RESULT: -6.713207148      1.079      1.231
REMARK  8 active torsions:
REMARK  status: ('A' for Active; 'I' for Inactive)
REMARK    1  A    between atoms: C3_3  and  O1_4 
REMARK    2  A    between atoms: O1_4  and  C4_5 
REMARK    3  A    between atoms: C4_5  and  C5_6 
REMARK    4  A    between atoms: C5_6  and  O2_7 
REMARK    5  A    between atoms: O2_7  and  C6_8 
REMARK    6  A    between atoms: C6_8  and  C7_9 
REMARK    7  A    between atoms: C10_15  and  N2_16 
REMARK    8  A    between atoms: C15_24  and  N4_25 
ROOT
HETATM    1  C1  UNL     1       0.339  11.709  -4.763  1.00  0.00     0.014 C 
HETATM    2  C2  UNL     1      -0.293  12.695  -4.985  1.00  0.00    -0.091 C 
HETATM    3  C3  UNL     1      -1.077  13.943  -5.237  1.00  0.00     0.260 C 
ENDROOT
BRANCH   3   4
HETATM    4  O1  UNL     1      -0.205  14.999  -5.102  1.00  0.00    -0.377 OA
BRANCH   4   5
HETATM    5  C4  UNL     1      -0.768  16.245  -4.897  1.00  0.00     0.195 C 
BRANCH   5   6
HETATM    6  C5  UNL     1       0.410  17.170  -5.367  1.00  0.00     0.194 C 
BRANCH   6   7
HETATM    7  O2  UNL     1      -0.127  18.311  -5.698  1.00  0.00    -0.385 OA
BRANCH   7   8
HETATM    8  C6  UNL     1      -0.803  19.201  -4.998  1.00  0.00     0.207 C 
BRANCH   8   9
HETATM    9  C7  UNL     1      -1.112  20.479  -5.773  1.00  0.00    -0.011 A 
HETATM   10  C8  UNL     1      -0.376  21.585  -5.461  1.00  0.00     0.062 A 
HETATM   11  S1  UNL     1      -1.222  22.875  -6.244  1.00  0.00    -0.082 SA
HETATM   12  C9  UNL     1      -2.489  21.922  -6.934  1.00  0.00     0.104 A 
HETATM   13  N1  UNL     1      -3.541  22.239  -7.773  1.00  0.00    -0.184 N 
HETATM   14  C16 UNL     1      -2.204  20.666  -6.539  1.00  0.00     0.051 A 
HETATM   15  C10 UNL     1      -4.326  21.276  -8.242  1.00  0.00     0.682 A 
ATOM     16  H1  UNL     1      -3.715  23.210  -8.031  1.00  0.00     0.185 HD
HETATM   17  N3  UNL     1      -4.071  20.026  -7.884  1.00  0.00    -0.176 N 
HETATM   18  C15 UNL     1      -3.056  19.638  -7.054  1.00  0.00     0.128 A 
ATOM     19  H3  UNL     1      -4.679  19.296  -8.257  1.00  0.00     0.186 HD
BRANCH  15  20
HETATM   20  N2  UNL     1      -5.359  21.610  -9.108  1.00  0.00    -0.213 N 
HETATM   21  C11 UNL     1      -5.766  22.961  -9.436  1.00  0.00     0.167 C 
HETATM   22  C12 UNL     1      -7.163  23.063  -8.761  1.00  0.00     0.188 C 
HETATM   23  O3  UNL     1      -7.970  22.233  -9.507  1.00  0.00    -0.388 OA
HETATM   24  C13 UNL     1      -7.669  20.900  -9.397  1.00  0.00     0.188 C 
HETATM   25  C14 UNL     1      -6.203  20.582  -9.748  1.00  0.00     0.167 C 
ENDBRANCH  15  20
BRANCH  18  26
HETATM   26  N4  UNL     1      -2.936  18.427  -6.842  1.00  0.00    -0.384 N 
ATOM     27  H42 UNL     1      -3.696  17.781  -6.629  1.00  0.00     0.157 HD
ATOM     28  H41 UNL     1      -1.990  18.046  -6.855  1.00  0.00     0.157 HD
ENDBRANCH  18  26
ENDBRANCH   8   9
ENDBRANCH   7   8
ENDBRANCH   6   7
ENDBRANCH   5   6
ENDBRANCH   4   5
ENDBRANCH   3   4
TORSDOF 8
ENDMDL
MODEL 4
REMARK VINA RESULT: -6.665942068      1.100      1.564
REMARK  8 active torsions:
REMARK  status: ('A' for Active; 'I' for Inactive)
REMARK    1  A    between atoms: C3_3  and  O1_4 
REMARK    2  A    between atoms: O1_4  and  C4_5 
REMARK    3  A    between atoms: C4_5  and  C5_6 
REMARK    4  A    between atoms: C5_6  and  O2_7 
REMARK    5  A    between atoms: O2_7  and  C6_8 
REMARK    6  A    between atoms: C6_8  and  C7_9 
REMARK    7  A    between atoms: C10_15  and  N2_16 
REMARK    8  A    between atoms: C15_24  and  N4_25 
ROOT
HETATM    1  C1  UNL     1       0.306  11.827  -4.746  1.00  0.00     0.014 C 
HETATM    2  C2  UNL     1      -0.118  12.923  -4.542  1.00  0.00    -0.091 C 
HETATM    3  C3  UNL     1      -0.621  14.306  -4.284  1.00  0.00     0.260 C 
ENDROOT
BRANCH   3   4
HETATM    4  O1  UNL     1      -0.031  15.129  -5.217  1.00  0.00    -0.377 OA
BRANCH   4   5
HETATM    5  C4  UNL     1      -0.245  16.486  -5.070  1.00  0.00     0.195 C 
BRANCH   5   6
HETATM    6  C5  UNL     1      -1.723  16.598  -5.585  1.00  0.00     0.194 C 
BRANCH   6   7
HETATM    7  O2  UNL     1      -1.762  17.635  -6.373  1.00  0.00    -0.385 OA
BRANCH   7   8
HETATM    8  C6  UNL     1      -2.624  18.002  -7.303  1.00  0.00     0.207 C 
BRANCH   8   9
HETATM    9  C7  UNL     1      -2.899  19.503  -7.320  1.00  0.00    -0.011 A 
HETATM   10  C8  UNL     1      -1.915  20.319  -6.841  1.00  0.00     0.062 A 
HETATM   11  S1  UNL     1      -2.695  21.854  -6.680  1.00  0.00    -0.082 SA
HETATM   12  C9  UNL     1      -4.258  21.368  -7.239  1.00  0.00     0.104 A 
HETATM   13  N1  UNL     1      -5.426  22.070  -7.464  1.00  0.00    -0.184 N 
HETATM   14  C16 UNL     1      -4.108  20.060  -7.525  1.00  0.00     0.051 A 
HETATM   15  C10 UNL     1      -6.474  21.457  -8.000  1.00  0.00     0.682 A 
ATOM     16  H1  UNL     1      -5.484  23.059  -7.218  1.00  0.00     0.185 HD
HETATM   17  N3  UNL     1      -6.363  20.172  -8.306  1.00  0.00    -0.176 N 
HETATM   18  C15 UNL     1      -5.245  19.411  -8.105  1.00  0.00     0.128 A 
ATOM     19  H3  UNL     1      -7.175  19.716  -8.723  1.00  0.00     0.186 HD
BRANCH  15  20
HETATM   20  N2  UNL     1      -7.630  22.187  -8.248  1.00  0.00    -0.213 N 
HETATM   21  C11 UNL     1      -8.118  22.549  -9.562  1.00  0.00     0.167 C 
HETATM   22  C12 UNL     1      -7.913  24.090  -9.583  1.00  0.00     0.188 C 
HETATM   23  O3  UNL     1      -8.840  24.576  -8.687  1.00  0.00    -0.388 OA
HETATM   24  C13 UNL     1      -8.592  24.246  -7.379  1.00  0.00     0.188 C 
HETATM   25  C14 UNL     1      -8.460  22.728  -7.154  1.00  0.00     0.167 C 
ENDBRANCH  15  20
BRANCH  18  26
HETATM   26  N4  UNL     1      -5.295  18.232  -8.473  1.00  0.00    -0.384 N 
ATOM     27  H42 UNL     1      -4.491  17.627  -8.641  1.00  0.00     0.157 HD
ATOM     28  H41 UNL     1      -6.220  17.841  -8.649  1.00  0.00     0.157 HD
ENDBRANCH  18  26
ENDBRANCH   8   9
ENDBRANCH   7   8
ENDBRANCH   6   7
ENDBRANCH   5   6
ENDBRANCH   4   5
ENDBRANCH   3   4
TORSDOF 8
ENDMDL
MODEL 5
REMARK VINA RESULT: -6.658495724      1.131      1.545
REMARK  8 active torsions:
REMARK  status: ('A' for Active; 'I' for Inactive)
REMARK    1  A    between atoms: C3_3  and  O1_4 
REMARK    2  A    between atoms: O1_4  and  C4_5 
REMARK    3  A    between atoms: C4_5  and  C5_6 
REMARK    4  A    between atoms: C5_6  and  O2_7 
REMARK    5  A    between atoms: O2_7  and  C6_8 
REMARK    6  A    between atoms: C6_8  and  C7_9 
REMARK    7  A    between atoms: C10_15  and  N2_16 
REMARK    8  A    between atoms: C15_24  and  N4_25 
ROOT
HETATM    1  C1  UNL     1       0.446  11.424  -4.722  1.00  0.00     0.014 C 
HETATM    2  C2  UNL     1       0.097  12.514  -4.388  1.00  0.00    -0.091 C 
HETATM    3  C3  UNL     1      -0.317  13.892  -3.982  1.00  0.00     0.260 C 
ENDROOT
BRANCH   3   4
HETATM    4  O1  UNL     1      -0.347  14.656  -5.127  1.00  0.00    -0.377 OA
BRANCH   4   5
HETATM    5  C4  UNL     1      -1.297  15.659  -5.177  1.00  0.00     0.195 C 
BRANCH   5   6
HETATM    6  C5  UNL     1      -0.430  16.892  -4.740  1.00  0.00     0.194 C 
BRANCH   6   7
HETATM    7  O2  UNL     1      -0.896  17.920  -5.393  1.00  0.00    -0.385 OA
BRANCH   7   8
HETATM    8  C6  UNL     1      -0.354  18.699  -6.309  1.00  0.00     0.207 C 
BRANCH   8   9
HETATM    9  C7  UNL     1      -1.100  20.015  -6.511  1.00  0.00    -0.011 A 
HETATM   10  C8  UNL     1      -0.513  21.142  -6.012  1.00  0.00     0.062 A 
HETATM   11  S1  UNL     1      -1.768  22.330  -6.097  1.00  0.00    -0.082 SA
HETATM   12  C9  UNL     1      -2.992  21.311  -6.771  1.00  0.00     0.104 A 
HETATM   13  N1  UNL     1      -4.284  21.563  -7.194  1.00  0.00    -0.184 N 
HETATM   14  C16 UNL     1      -2.384  20.116  -6.903  1.00  0.00     0.051 A 
HETATM   15  C10 UNL     1      -4.988  20.600  -7.776  1.00  0.00     0.682 A 
ATOM     16  H1  UNL     1      -4.695  22.486  -7.058  1.00  0.00     0.185 HD
HETATM   17  N3  UNL     1      -4.421  19.413  -7.935  1.00  0.00    -0.176 N 
HETATM   18  C15 UNL     1      -3.154  19.088  -7.535  1.00  0.00     0.128 A 
ATOM     19  H3  UNL     1      -4.973  18.685  -8.390  1.00  0.00     0.186 HD
BRANCH  15  20
HETATM   20  N2  UNL     1      -6.273  20.880  -8.223  1.00  0.00    -0.213 N 
HETATM   21  C11 UNL     1      -7.007  20.091  -9.190  1.00  0.00     0.167 C 
HETATM   22  C12 UNL     1      -7.067  21.039 -10.421  1.00  0.00     0.188 C 
HETATM   23  O3  UNL     1      -7.917  22.053 -10.036  1.00  0.00    -0.388 OA
HETATM   24  C13 UNL     1      -7.423  22.861  -9.044  1.00  0.00     0.188 C 
HETATM   25  C14 UNL     1      -7.008  22.082  -7.783  1.00  0.00     0.167 C 
ENDBRANCH  15  20
BRANCH  18  26
HETATM   26  N4  UNL     1      -2.764  17.942  -7.783  1.00  0.00    -0.384 N 
ATOM     27  H42 UNL     1      -2.431  17.610  -8.688  1.00  0.00     0.157 HD
ATOM     28  H41 UNL     1      -2.805  17.264  -7.023  1.00  0.00     0.157 HD
ENDBRANCH  18  26
ENDBRANCH   8   9
ENDBRANCH   7   8
ENDBRANCH   6   7
ENDBRANCH   5   6
ENDBRANCH   4   5
ENDBRANCH   3   4
TORSDOF 8
ENDMDL
