MODEL 1
REMARK VINA RESULT: -6.243113448      0.000      0.000
REMARK  9 active torsions:
REMARK  status: ('A' for Active; 'I' for Inactive)
REMARK    1  A    between atoms: C2_2  and  C3_3 
REMARK    2  A    between atoms: C3_3  and  O1_4 
REMARK    3  A    between atoms: O1_4  and  C4_5 
REMARK    4  A    between atoms: C6_7  and  C7_8 
REMARK    5  A    between atoms: C7_8  and  O2_9 
REMARK    6  A    between atoms: C8_12  and  O4_13 
REMARK    7  A    between atoms: C10_15  and  C11_16 
REMARK    8  A    between atoms: C12_17  and  C13_18 
REMARK    9  A    between atoms: C18_25  and  O7_26 
ROOT
HETATM    1  C4  UNL     1      -0.663  21.508  -6.209  1.00  0.00     0.143 C 
HETATM    2  C5  UNL     1      -1.778  20.838  -6.414  1.00  0.00     0.002 C 
HETATM    3  C6  UNL     1      -1.934  19.442  -6.798  1.00  0.00     0.181 C 
HETATM    4  O3  UNL     1      -2.610  19.451  -8.045  1.00  0.00    -0.349 OA
HETATM    5  C8  UNL     1      -3.932  19.772  -7.754  1.00  0.00     0.270 C 
HETATM    6  C10 UNL     1      -4.088  21.196  -7.282  1.00  0.00     0.096 C 
HETATM    7  C18 UNL     1      -3.077  21.587  -6.237  1.00  0.00     0.164 C 
ENDROOT
BRANCH   6   8
HETATM    8  C11 UNL     1      -4.043  22.161  -8.409  1.00  0.00    -0.016 C 
HETATM    9  C12 UNL     1      -5.023  22.960  -8.779  1.00  0.00     0.002 C 
BRANCH   9  10
HETATM   10  C13 UNL     1      -6.349  23.034  -8.128  1.00  0.00     0.154 C 
HETATM   11  C14 UNL     1      -6.938  24.410  -8.257  1.00  0.00     0.037 C 
HETATM   12  C15 UNL     1      -8.424  24.434  -7.995  1.00  0.00     0.013 C 
HETATM   13  C16 UNL     1      -9.083  23.621  -9.117  1.00  0.00     0.111 C 
HETATM   14  C17 UNL     1      -8.514  22.252  -9.009  1.00  0.00     0.259 C 
HETATM   15  O5  UNL     1      -9.259  21.270  -9.245  1.00  0.00    -0.265 OA
HETATM   16  O6  UNL     1      -7.206  22.036  -8.660  1.00  0.00    -0.312 OA
ENDBRANCH   9  10
ENDBRANCH   6   8
BRANCH   5  17
HETATM   17  O4  UNL     1      -4.654  19.564  -8.921  1.00  0.00    -0.365 OA
HETATM   18  C9  UNL     1      -5.793  18.837  -8.600  1.00  0.00     0.204 C 
ENDBRANCH   5  17
BRANCH   7  19
HETATM   19  O7  UNL     1      -2.831  22.958  -6.245  1.00  0.00    -0.390 OA
ATOM     20  H7  UNL     1      -3.533  23.410  -5.790  1.00  0.00     0.210 HD
ENDBRANCH   7  19
BRANCH   3  21
HETATM   21  C7  UNL     1      -0.719  18.597  -6.874  1.00  0.00     0.201 C 
BRANCH  21  22
HETATM   22  O2  UNL     1      -0.205  18.783  -8.193  1.00  0.00    -0.398 OA
ATOM     23  H2  UNL     1       0.588  18.264  -8.233  1.00  0.00     0.209 HD
ENDBRANCH  21  22
ENDBRANCH   3  21
BRANCH   1  24
HETATM   24  O1  UNL     1       0.577  21.177  -6.275  1.00  0.00    -0.359 OA
BRANCH  24  25
HETATM   25  C3  UNL     1       1.834  20.841  -6.340  1.00  0.00     0.201 C 
BRANCH  25  26
HETATM   26  C2  UNL     1       2.510  20.998  -7.668  1.00  0.00    -0.011 C 
HETATM   27  C1  UNL     1       2.792  22.208  -8.094  1.00  0.00     0.009 C 
ENDBRANCH  25  26
ENDBRANCH  24  25
ENDBRANCH   1  24
TORSDOF 9
ENDMDL
MODEL 2
REMARK VINA RESULT: -5.880899156      1.489      1.977
REMARK  9 active torsions:
REMARK  status: ('A' for Active; 'I' for Inactive)
REMARK    1  A    between atoms: C2_2  and  C3_3 
REMARK    2  A    between atoms: C3_3  and  O1_4 
REMARK    3  A    between atoms: O1_4  and  C4_5 
REMARK    4  A    between atoms: C6_7  and  C7_8 
REMARK    5  A    between atoms: C7_8  and  O2_9 
REMARK    6  A    between atoms: C8_12  and  O4_13 
REMARK    7  A    between atoms: C10_15  and  C11_16 
REMARK    8  A    between atoms: C12_17  and  C13_18 
REMARK    9  A    between atoms: C18_25  and  O7_26 
ROOT
HETATM    1  C4  UNL     1      -2.118  22.021  -6.553  1.00  0.00     0.143 C 
HETATM    2  C5  UNL     1      -3.190  21.333  -6.887  1.00  0.00     0.002 C 
HETATM    3  C6  UNL     1      -3.304  19.901  -7.126  1.00  0.00     0.181 C 
HETATM    4  O3  UNL     1      -3.731  19.760  -8.471  1.00  0.00    -0.349 OA
HETATM    5  C8  UNL     1      -5.076  20.116  -8.479  1.00  0.00     0.270 C 
HETATM    6  C10 UNL     1      -5.283  21.587  -8.217  1.00  0.00     0.096 C 
HETATM    7  C18 UNL     1      -4.481  22.100  -7.051  1.00  0.00     0.164 C 
ENDROOT
BRANCH   6   8
HETATM    8  C11 UNL     1      -5.002  22.409  -9.421  1.00  0.00    -0.016 C 
HETATM    9  C12 UNL     1      -5.787  23.343  -9.917  1.00  0.00     0.002 C 
BRANCH   9  10
HETATM   10  C13 UNL     1      -7.097  23.738  -9.354  1.00  0.00     0.154 C 
HETATM   11  C14 UNL     1      -8.009  22.551  -9.225  1.00  0.00     0.037 C 
HETATM   12  C15 UNL     1      -9.167  22.807  -8.293  1.00  0.00     0.013 C 
HETATM   13  C16 UNL     1      -8.573  22.996  -6.891  1.00  0.00     0.111 C 
HETATM   14  C17 UNL     1      -7.664  24.168  -6.995  1.00  0.00     0.259 C 
HETATM   15  O5  UNL     1      -7.590  24.960  -6.024  1.00  0.00    -0.265 OA
HETATM   16  O6  UNL     1      -6.911  24.404  -8.115  1.00  0.00    -0.312 OA
ENDBRANCH   9  10
ENDBRANCH   6   8
BRANCH   5  17
HETATM   17  O4  UNL     1      -5.567  19.769  -9.729  1.00  0.00    -0.365 OA
HETATM   18  C9  UNL     1      -6.456  18.715  -9.566  1.00  0.00     0.204 C 
ENDBRANCH   5  17
BRANCH   7  19
HETATM   19  O7  UNL     1      -4.204  23.459  -7.174  1.00  0.00    -0.390 OA
ATOM     20  H7  UNL     1      -4.759  23.838  -7.846  1.00  0.00     0.210 HD
ENDBRANCH   7  19
BRANCH   3  21
HETATM   21  C7  UNL     1      -2.118  19.051  -6.867  1.00  0.00     0.201 C 
BRANCH  21  22
HETATM   22  O2  UNL     1      -1.396  19.017  -8.099  1.00  0.00    -0.398 OA
ATOM     23  H2  UNL     1      -0.870  18.227  -8.063  1.00  0.00     0.209 HD
ENDBRANCH  21  22
ENDBRANCH   3  21
BRANCH   1  24
HETATM   24  O1  UNL     1      -0.896  21.683  -6.341  1.00  0.00    -0.359 OA
BRANCH  24  25
HETATM   25  C3  UNL     1       0.342  21.339  -6.128  1.00  0.00     0.201 C 
BRANCH  25  26
HETATM   26  C2  UNL     1       1.399  22.303  -6.576  1.00  0.00    -0.011 C 
HETATM   27  C1  UNL     1       2.365  21.866  -7.351  1.00  0.00     0.009 C 
ENDBRANCH  25  26
ENDBRANCH  24  25
ENDBRANCH   1  24
TORSDOF 9
ENDMDL
MODEL 3
REMARK VINA RESULT: -5.803381970      1.862      7.458
REMARK  9 active torsions:
REMARK  status: ('A' for Active; 'I' for Inactive)
REMARK    1  A    between atoms: C2_2  and  C3_3 
REMARK    2  A    between atoms: C3_3  and  O1_4 
REMARK    3  A    between atoms: O1_4  and  C4_5 
REMARK    4  A    between atoms: C6_7  and  C7_8 
REMARK    5  A    between atoms: C7_8  and  O2_9 
REMARK    6  A    between atoms: C8_12  and  O4_13 
REMARK    7  A    between atoms: C10_15  and  C11_16 
REMARK    8  A    between atoms: C12_17  and  C13_18 
REMARK    9  A    between atoms: C18_25  and  O7_26 
ROOT
HETATM    1  C4  UNL     1      -5.861  23.995  -8.519  1.00  0.00     0.143 C 
HETATM    2  C5  UNL     1      -5.578  22.785  -8.954  1.00  0.00     0.002 C 
HETATM    3  C6  UNL     1      -6.467  21.825  -9.591  1.00  0.00     0.181 C 
HETATM    4  O3  UNL     1      -6.487  20.687  -8.745  1.00  0.00    -0.349 OA
HETATM    5  C8  UNL     1      -5.265  20.052  -8.939  1.00  0.00     0.270 C 
HETATM    6  C10 UNL     1      -4.108  20.851  -8.393  1.00  0.00     0.096 C 
HETATM    7  C18 UNL     1      -4.156  22.304  -8.783  1.00  0.00     0.164 C 
ENDROOT
BRANCH   6   8
HETATM    8  C11 UNL     1      -3.999  20.730  -6.918  1.00  0.00    -0.016 C 
HETATM    9  C12 UNL     1      -3.077  20.052  -6.266  1.00  0.00     0.002 C 
BRANCH   9  10
HETATM   10  C13 UNL     1      -1.980  19.287  -6.898  1.00  0.00     0.154 C 
HETATM   11  C14 UNL     1      -0.659  19.973  -6.700  1.00  0.00     0.037 C 
HETATM   12  C15 UNL     1       0.515  19.057  -6.944  1.00  0.00     0.013 C 
HETATM   13  C16 UNL     1       0.468  17.979  -5.854  1.00  0.00     0.111 C 
HETATM   14  C17 UNL     1      -0.835  17.284  -6.031  1.00  0.00     0.259 C 
HETATM   15  O5  UNL     1      -0.890  16.047  -5.832  1.00  0.00    -0.265 OA
HETATM   16  O6  UNL     1      -1.970  17.957  -6.403  1.00  0.00    -0.312 OA
ENDBRANCH   9  10
ENDBRANCH   6   8
BRANCH   5  17
HETATM   17  O4  UNL     1      -5.353  18.824  -8.301  1.00  0.00    -0.365 OA
HETATM   18  C9  UNL     1      -6.421  18.126  -8.852  1.00  0.00     0.204 C 
ENDBRANCH   5  17
BRANCH   7  19
HETATM   19  O7  UNL     1      -3.499  23.109  -7.855  1.00  0.00    -0.390 OA
ATOM     20  H7  UNL     1      -2.560  22.989  -7.938  1.00  0.00     0.210 HD
ENDBRANCH   7  19
BRANCH   3  21
HETATM   21  C7  UNL     1      -7.848  22.256  -9.913  1.00  0.00     0.201 C 
BRANCH  21  22
HETATM   22  O2  UNL     1      -8.703  21.389  -9.166  1.00  0.00    -0.398 OA
ATOM     23  H2  UNL     1      -9.186  21.954  -8.576  1.00  0.00     0.209 HD
ENDBRANCH  21  22
ENDBRANCH   3  21
BRANCH   1  24
HETATM   24  O1  UNL     1      -6.944  24.688  -8.510  1.00  0.00    -0.359 OA
BRANCH  24  25
HETATM   25  C3  UNL     1      -8.041  25.390  -8.500  1.00  0.00     0.201 C 
BRANCH  25  26
HETATM   26  C2  UNL     1      -9.188  24.843  -7.707  1.00  0.00    -0.011 C 
HETATM   27  C1  UNL     1      -8.933  24.061  -6.683  1.00  0.00     0.009 C 
ENDBRANCH  25  26
ENDBRANCH  24  25
ENDBRANCH   1  24
TORSDOF 9
ENDMDL
MODEL 4
REMARK VINA RESULT: -5.802318637      1.472      7.537
REMARK  9 active torsions:
REMARK  status: ('A' for Active; 'I' for Inactive)
REMARK    1  A    between atoms: C2_2  and  C3_3 
REMARK    2  A    between atoms: C3_3  and  O1_4 
REMARK    3  A    between atoms: O1_4  and  C4_5 
REMARK    4  A    between atoms: C6_7  and  C7_8 
REMARK    5  A    between atoms: C7_8  and  O2_9 
REMARK    6  A    between atoms: C8_12  and  O4_13 
REMARK    7  A    between atoms: C10_15  and  C11_16 
REMARK    8  A    between atoms: C12_17  and  C13_18 
REMARK    9  A    between atoms: C18_25  and  O7_26 
ROOT
HETATM    1  C4  UNL     1      -6.693  23.683  -8.192  1.00  0.00     0.143 C 
HETATM    2  C5  UNL     1      -6.167  22.646  -8.811  1.00  0.00     0.002 C 
HETATM    3  C6  UNL     1      -6.824  21.693  -9.693  1.00  0.00     0.181 C 
HETATM    4  O3  UNL     1      -6.686  20.425  -9.073  1.00  0.00    -0.349 OA
HETATM    5  C8  UNL     1      -5.359  20.056  -9.263  1.00  0.00     0.270 C 
HETATM    6  C10 UNL     1      -4.404  20.917  -8.474  1.00  0.00     0.096 C 
HETATM    7  C18 UNL     1      -4.694  22.388  -8.597  1.00  0.00     0.164 C 
ENDROOT
BRANCH   6   8
HETATM    8  C11 UNL     1      -4.364  20.530  -7.042  1.00  0.00    -0.016 C 
HETATM    9  C12 UNL     1      -3.278  20.269  -6.344  1.00  0.00     0.002 C 
BRANCH   9  10
HETATM   10  C13 UNL     1      -1.897  20.316  -6.872  1.00  0.00     0.154 C 
HETATM   11  C14 UNL     1      -1.073  21.336  -6.140  1.00  0.00     0.037 C 
HETATM   12  C15 UNL     1       0.410  21.138  -6.339  1.00  0.00     0.013 C 
HETATM   13  C16 UNL     1       0.769  19.800  -5.680  1.00  0.00     0.111 C 
HETATM   14  C17 UNL     1      -0.037  18.772  -6.391  1.00  0.00     0.259 C 
HETATM   15  O5  UNL     1       0.473  17.645  -6.599  1.00  0.00    -0.265 OA
HETATM   16  O6  UNL     1      -1.314  19.023  -6.821  1.00  0.00    -0.312 OA
ENDBRANCH   9  10
ENDBRANCH   6   8
BRANCH   5  17
HETATM   17  O4  UNL     1      -5.258  18.729  -8.869  1.00  0.00    -0.365 OA
HETATM   18  C9  UNL     1      -6.437  18.084  -9.220  1.00  0.00     0.204 C 
ENDBRANCH   5  17
BRANCH   7  19
HETATM   19  O7  UNL     1      -4.253  23.096  -7.481  1.00  0.00    -0.390 OA
ATOM     20  H7  UNL     1      -3.568  22.604  -7.042  1.00  0.00     0.210 HD
ENDBRANCH   7  19
BRANCH   3  21
HETATM   21  C7  UNL     1      -8.239  21.938 -10.059  1.00  0.00     0.201 C 
BRANCH  21  22
HETATM   22  O2  UNL     1      -9.014  21.235  -9.087  1.00  0.00    -0.398 OA
ATOM     23  H2  UNL     1      -9.258  21.885  -8.439  1.00  0.00     0.209 HD
ENDBRANCH  21  22
ENDBRANCH   3  21
BRANCH   1  24
HETATM   24  O1  UNL     1      -7.884  24.167  -8.161  1.00  0.00    -0.359 OA
BRANCH  24  25
HETATM   25  C3  UNL     1      -9.090  24.657  -8.126  1.00  0.00     0.201 C 
BRANCH  25  26
HETATM   26  C2  UNL     1      -9.397  25.626  -7.026  1.00  0.00    -0.011 C 
HETATM   27  C1  UNL     1      -9.132  25.280  -5.787  1.00  0.00     0.009 C 
ENDBRANCH  25  26
ENDBRANCH  24  25
ENDBRANCH   1  24
TORSDOF 9
ENDMDL
MODEL 5
REMARK VINA RESULT: -5.636900585      4.035      8.388
REMARK  9 active torsions:
REMARK  status: ('A' for Active; 'I' for Inactive)
REMARK    1  A    between atoms: C2_2  and  C3_3 
REMARK    2  A    between atoms: C3_3  and  O1_4 
REMARK    3  A    between atoms: O1_4  and  C4_5 
REMARK    4  A    between atoms: C6_7  and  C7_8 
REMARK    5  A    between atoms: C7_8  and  O2_9 
REMARK    6  A    between atoms: C8_12  and  O4_13 
REMARK    7  A    between atoms: C10_15  and  C11_16 
REMARK    8  A    between atoms: C12_17  and  C13_18 
REMARK    9  A    between atoms: C18_25  and  O7_26 
ROOT
HETATM    1  C4  UNL     1      -1.302  21.043  -4.386  1.00  0.00     0.143 C 
HETATM    2  C5  UNL     1      -0.234  20.311  -4.629  1.00  0.00     0.002 C 
HETATM    3  C6  UNL     1       0.894  20.621  -5.496  1.00  0.00     0.181 C 
HETATM    4  O3  UNL     1       0.914  19.609  -6.490  1.00  0.00    -0.349 OA
HETATM    5  C8  UNL     1       1.399  18.469  -5.858  1.00  0.00     0.270 C 
HETATM    6  C10 UNL     1       0.429  17.918  -4.843  1.00  0.00     0.096 C 
HETATM    7  C18 UNL     1      -0.141  18.974  -3.934  1.00  0.00     0.164 C 
ENDROOT
BRANCH   6   8
HETATM    8  C11 UNL     1      -0.672  17.159  -5.485  1.00  0.00    -0.016 C 
HETATM    9  C12 UNL     1      -0.922  15.876  -5.322  1.00  0.00     0.002 C 
BRANCH   9  10
HETATM   10  C13 UNL     1      -0.140  14.961  -4.462  1.00  0.00     0.154 C 
HETATM   11  C14 UNL     1      -0.792  14.793  -3.120  1.00  0.00     0.037 C 
HETATM   12  C15 UNL     1      -0.288  13.581  -2.376  1.00  0.00     0.013 C 
HETATM   13  C16 UNL     1      -0.731  12.353  -3.182  1.00  0.00     0.111 C 
HETATM   14  C17 UNL     1      -0.096  12.498  -4.518  1.00  0.00     0.259 C 
HETATM   15  O5  UNL     1       0.316  11.468  -5.104  1.00  0.00    -0.265 OA
HETATM   16  O6  UNL     1       0.048  13.719  -5.122  1.00  0.00    -0.312 OA
ENDBRANCH   9  10
ENDBRANCH   6   8
BRANCH   5  17
HETATM   17  O4  UNL     1       1.642  17.538  -6.856  1.00  0.00    -0.365 OA
HETATM   18  C9  UNL     1       2.064  18.220  -7.990  1.00  0.00     0.204 C 
ENDBRANCH   5  17
BRANCH   7  19
HETATM   19  O7  UNL     1      -1.395  18.612  -3.447  1.00  0.00    -0.390 OA
ATOM     20  H7  UNL     1      -1.595  19.123  -2.671  1.00  0.00     0.210 HD
ENDBRANCH   7  19
BRANCH   3  21
HETATM   21  C7  UNL     1       0.949  21.963  -6.122  1.00  0.00     0.201 C 
BRANCH  21  22
HETATM   22  O2  UNL     1       1.629  21.779  -7.363  1.00  0.00    -0.398 OA
ATOM     23  H2  UNL     1       1.269  22.432  -7.951  1.00  0.00     0.209 HD
ENDBRANCH  21  22
ENDBRANCH   3  21
BRANCH   1  24
HETATM   24  O1  UNL     1      -1.680  22.198  -4.806  1.00  0.00    -0.359 OA
BRANCH  24  25
HETATM   25  C3  UNL     1      -2.062  23.369  -5.232  1.00  0.00     0.201 C 
BRANCH  25  26
HETATM   26  C2  UNL     1      -2.199  23.538  -6.714  1.00  0.00    -0.011 C 
HETATM   27  C1  UNL     1      -2.935  22.680  -7.383  1.00  0.00     0.009 C 
ENDBRANCH  25  26
ENDBRANCH  24  25
ENDBRANCH   1  24
TORSDOF 9
ENDMDL
