MODEL 1
REMARK VINA RESULT: -6.047948228      0.000      0.000
REMARK  7 active torsions:
REMARK  status: ('A' for Active; 'I' for Inactive)
REMARK    1  A    between atoms: O1_2  and  C2_3 
REMARK    2  A    between atoms: C3_5  and  O3_6 
REMARK    3  A    between atoms: O3_6  and  C4_7 
REMARK    4  A    between atoms: C7_10  and  N1_11 
REMARK       I    between atoms: N1_11  and  C8_13 
REMARK    5  A    between atoms: C8_13  and  C9_15 
REMARK    6  A    between atoms: C12_22  and  O5_23 
REMARK    7  A    between atoms: C14_25  and  O6_26 
ROOT
HETATM    1  C2  UNL     1      -6.229  21.950  -6.723  1.00  0.00     0.293 C 
HETATM    2  O2  UNL     1      -6.323  20.580  -6.910  1.00  0.00    -0.327 OA
HETATM    3  C3  UNL     1      -5.221  20.055  -7.587  1.00  0.00     0.288 C 
HETATM    4  C7  UNL     1      -4.006  20.917  -7.273  1.00  0.00     0.171 C 
HETATM    5  C12 UNL     1      -4.174  22.159  -8.150  1.00  0.00     0.182 C 
HETATM    6  C14 UNL     1      -5.568  22.668  -7.879  1.00  0.00     0.207 C 
ENDROOT
BRANCH   4   7
HETATM    7  N1  UNL     1      -2.772  20.235  -7.473  1.00  0.00    -0.342 N 
HETATM    8  C8  UNL     1      -2.002  19.755  -6.393  1.00  0.00     0.286 C 
HETATM    9  O4  UNL     1      -2.384  19.913  -5.190  1.00  0.00    -0.264 OA
ATOM     10  H1  UNL     1      -2.434  20.091  -8.425  1.00  0.00     0.163 HD
BRANCH   8  11
HETATM   11  C9  UNL     1      -0.740  19.058  -6.597  1.00  0.00     0.174 A 
HETATM   12  N2  UNL     1      -0.074  19.027  -7.768  1.00  0.00    -0.346 N 
HETATM   13  C10 UNL     1       1.060  18.296  -7.616  1.00  0.00     0.107 A 
ATOM     14  H2  UNL     1      -0.374  19.480  -8.632  1.00  0.00     0.167 HD
HETATM   15  C11 UNL     1       1.091  17.865  -6.309  1.00  0.00     0.107 A 
HETATM   16  N3  UNL     1      -0.019  18.355  -5.740  1.00  0.00    -0.346 N 
ATOM     17  H3  UNL     1      -0.276  18.204  -4.765  1.00  0.00     0.167 HD
ENDBRANCH   8  11
ENDBRANCH   4   7
BRANCH   3  18
HETATM   18  O3  UNL     1      -5.487  20.209  -8.928  1.00  0.00    -0.354 OA
BRANCH  18  19
HETATM   19  C4  UNL     1      -6.489  19.443  -9.450  1.00  0.00     0.116 C 
HETATM   20  C5  UNL     1      -6.400  17.973  -9.131  1.00  0.00     0.039 C 
HETATM   21  C6  UNL     1      -6.659  19.618 -10.946  1.00  0.00     0.039 C 
ENDBRANCH  18  19
ENDBRANCH   3  18
BRANCH   5  22
HETATM   22  O5  UNL     1      -3.196  23.096  -7.898  1.00  0.00    -0.386 OA
HETATM   23  C13 UNL     1      -2.962  23.183  -6.511  1.00  0.00     0.202 C 
ENDBRANCH   5  22
BRANCH   6  24
HETATM   24  O6  UNL     1      -5.509  24.024  -7.573  1.00  0.00    -0.383 OA
HETATM   25  C15 UNL     1      -5.961  24.794  -8.650  1.00  0.00     0.202 C 
ENDBRANCH   6  24
BRANCH   1  26
HETATM   26  O1  UNL     1      -7.560  22.427  -6.686  1.00  0.00    -0.363 OA
HETATM   27  C1  UNL     1      -8.244  22.110  -7.857  1.00  0.00     0.204 C 
ENDBRANCH   1  26
TORSDOF 7
ENDMDL
MODEL 2
REMARK VINA RESULT: -5.938394383      3.280      7.736
REMARK  7 active torsions:
REMARK  status: ('A' for Active; 'I' for Inactive)
REMARK    1  A    between atoms: O1_2  and  C2_3 
REMARK    2  A    between atoms: C3_5  and  O3_6 
REMARK    3  A    between atoms: O3_6  and  C4_7 
REMARK    4  A    between atoms: C7_10  and  N1_11 
REMARK       I    between atoms: N1_11  and  C8_13 
REMARK    5  A    between atoms: C8_13  and  C9_15 
REMARK    6  A    between atoms: C12_22  and  O5_23 
REMARK    7  A    between atoms: C14_25  and  O6_26 
ROOT
HETATM    1  C2  UNL     1       1.470  17.637  -5.266  1.00  0.00     0.293 C 
HETATM    2  O2  UNL     1       0.885  16.488  -5.775  1.00  0.00    -0.327 OA
HETATM    3  C3  UNL     1      -0.503  16.486  -5.632  1.00  0.00     0.288 C 
HETATM    4  C7  UNL     1      -0.994  17.925  -5.659  1.00  0.00     0.171 C 
HETATM    5  C12 UNL     1      -0.676  18.471  -4.267  1.00  0.00     0.182 C 
HETATM    6  C14 UNL     1       0.781  18.160  -4.025  1.00  0.00     0.207 C 
ENDROOT
BRANCH   4   7
HETATM    7  N1  UNL     1      -2.367  18.041  -6.022  1.00  0.00    -0.342 N 
HETATM    8  C8  UNL     1      -2.791  18.867  -7.084  1.00  0.00     0.286 C 
HETATM    9  O4  UNL     1      -1.957  19.546  -7.763  1.00  0.00    -0.264 OA
ATOM     10  H1  UNL     1      -3.063  17.510  -5.498  1.00  0.00     0.163 HD
BRANCH   8  11
HETATM   11  C9  UNL     1      -4.193  18.985  -7.455  1.00  0.00     0.174 A 
HETATM   12  N2  UNL     1      -4.987  20.014  -7.095  1.00  0.00    -0.346 N 
HETATM   13  C10 UNL     1      -6.230  19.815  -7.604  1.00  0.00     0.107 A 
ATOM     14  H2  UNL     1      -4.699  20.813  -6.531  1.00  0.00     0.167 HD
HETATM   15  C11 UNL     1      -6.198  18.628  -8.298  1.00  0.00     0.107 A 
HETATM   16  N3  UNL     1      -4.945  18.170  -8.176  1.00  0.00    -0.346 N 
ATOM     17  H3  UNL     1      -4.611  17.299  -8.588  1.00  0.00     0.167 HD
ENDBRANCH   8  11
ENDBRANCH   4   7
BRANCH   3  18
HETATM   18  O3  UNL     1      -0.756  15.999  -4.370  1.00  0.00    -0.354 OA
BRANCH  18  19
HETATM   19  C4  UNL     1      -0.542  14.666  -4.168  1.00  0.00     0.116 C 
HETATM   20  C5  UNL     1      -1.357  13.749  -5.043  1.00  0.00     0.039 C 
HETATM   21  C6  UNL     1      -0.704  14.246  -2.721  1.00  0.00     0.039 C 
ENDBRANCH  18  19
ENDBRANCH   3  18
BRANCH   5  22
HETATM   22  O5  UNL     1      -0.968  19.814  -4.167  1.00  0.00    -0.386 OA
HETATM   23  C13 UNL     1      -1.734  20.053  -3.009  1.00  0.00     0.202 C 
ENDBRANCH   5  22
BRANCH   6  24
HETATM   24  O6  UNL     1       1.434  19.319  -3.619  1.00  0.00    -0.383 OA
HETATM   25  C15 UNL     1       1.838  19.217  -2.284  1.00  0.00     0.202 C 
ENDBRANCH   6  24
BRANCH   1  26
HETATM   26  O1  UNL     1       2.768  17.258  -4.851  1.00  0.00    -0.363 OA
HETATM   27  C1  UNL     1       3.734  18.129  -5.348  1.00  0.00     0.204 C 
ENDBRANCH   1  26
TORSDOF 7
ENDMDL
MODEL 3
REMARK VINA RESULT: -5.928981197      6.117     10.276
REMARK  7 active torsions:
REMARK  status: ('A' for Active; 'I' for Inactive)
REMARK    1  A    between atoms: O1_2  and  C2_3 
REMARK    2  A    between atoms: C3_5  and  O3_6 
REMARK    3  A    between atoms: O3_6  and  C4_7 
REMARK    4  A    between atoms: C7_10  and  N1_11 
REMARK       I    between atoms: N1_11  and  C8_13 
REMARK    5  A    between atoms: C8_13  and  C9_15 
REMARK    6  A    between atoms: C12_22  and  O5_23 
REMARK    7  A    between atoms: C14_25  and  O6_26 
ROOT
HETATM    1  C2  UNL     1       1.871  13.665  -1.401  1.00  0.00     0.293 C 
HETATM    2  O2  UNL     1       1.769  13.325  -2.741  1.00  0.00    -0.327 OA
HETATM    3  C3  UNL     1       0.602  13.813  -3.331  1.00  0.00     0.288 C 
HETATM    4  C7  UNL     1       0.200  15.095  -2.617  1.00  0.00     0.171 C 
HETATM    5  C12 UNL     1      -0.447  14.626  -1.312  1.00  0.00     0.182 C 
HETATM    6  C14 UNL     1       0.539  13.672  -0.683  1.00  0.00     0.207 C 
ENDROOT
BRANCH   4   7
HETATM    7  N1  UNL     1      -0.639  15.934  -3.405  1.00  0.00    -0.342 N 
HETATM    8  C8  UNL     1      -0.126  16.733  -4.447  1.00  0.00     0.286 C 
HETATM    9  O4  UNL     1       1.115  16.736  -4.726  1.00  0.00    -0.264 OA
ATOM     10  H1  UNL     1      -1.640  15.957  -3.209  1.00  0.00     0.163 HD
BRANCH   8  11
HETATM   11  C9  UNL     1      -0.983  17.591  -5.253  1.00  0.00     0.174 A 
HETATM   12  N2  UNL     1      -1.967  17.138  -6.055  1.00  0.00    -0.346 N 
HETATM   13  C10 UNL     1      -2.570  18.193  -6.660  1.00  0.00     0.107 A 
ATOM     14  H2  UNL     1      -2.219  16.158  -6.187  1.00  0.00     0.167 HD
HETATM   15  C11 UNL     1      -1.936  19.330  -6.214  1.00  0.00     0.107 A 
HETATM   16  N3  UNL     1      -0.988  18.908  -5.367  1.00  0.00    -0.346 N 
ATOM     17  H3  UNL     1      -0.347  19.528  -4.871  1.00  0.00     0.167 HD
ENDBRANCH   8  11
ENDBRANCH   4   7
BRANCH   3  18
HETATM   18  O3  UNL     1      -0.377  12.882  -3.069  1.00  0.00    -0.354 OA
BRANCH  18  19
HETATM   19  C4  UNL     1      -0.843  12.161  -4.130  1.00  0.00     0.116 C 
HETATM   20  C5  UNL     1       0.046  11.026  -4.568  1.00  0.00     0.039 C 
HETATM   21  C6  UNL     1      -1.187  13.017  -5.332  1.00  0.00     0.039 C 
ENDBRANCH  18  19
ENDBRANCH   3  18
BRANCH   5  22
HETATM   22  O5  UNL     1      -0.772  15.687  -0.495  1.00  0.00    -0.386 OA
HETATM   23  C13 UNL     1      -2.140  15.633  -0.162  1.00  0.00     0.202 C 
ENDBRANCH   5  22
BRANCH   6  24
HETATM   24  O6  UNL     1       0.759  14.047   0.638  1.00  0.00    -0.383 OA
HETATM   25  C15 UNL     1       0.485  12.985   1.505  1.00  0.00     0.202 C 
ENDBRANCH   6  24
BRANCH   1  26
HETATM   26  O1  UNL     1       2.626  12.633  -0.797  1.00  0.00    -0.363 OA
HETATM   27  C1  UNL     1       3.974  12.975  -0.713  1.00  0.00     0.204 C 
ENDBRANCH   1  26
TORSDOF 7
ENDMDL
MODEL 4
REMARK VINA RESULT: -5.918594986      5.515      9.724
REMARK  7 active torsions:
REMARK  status: ('A' for Active; 'I' for Inactive)
REMARK    1  A    between atoms: O1_2  and  C2_3 
REMARK    2  A    between atoms: C3_5  and  O3_6 
REMARK    3  A    between atoms: O3_6  and  C4_7 
REMARK    4  A    between atoms: C7_10  and  N1_11 
REMARK       I    between atoms: N1_11  and  C8_13 
REMARK    5  A    between atoms: C8_13  and  C9_15 
REMARK    6  A    between atoms: C12_22  and  O5_23 
REMARK    7  A    between atoms: C14_25  and  O6_26 
ROOT
HETATM    1  C2  UNL     1       0.546  13.477  -2.294  1.00  0.00     0.293 C 
HETATM    2  O2  UNL     1      -0.753  13.674  -1.853  1.00  0.00    -0.327 OA
HETATM    3  C3  UNL     1      -1.189  14.987  -2.043  1.00  0.00     0.288 C 
HETATM    4  C7  UNL     1      -0.471  15.563  -3.254  1.00  0.00     0.171 C 
HETATM    5  C12 UNL     1       0.927  15.916  -2.746  1.00  0.00     0.182 C 
HETATM    6  C14 UNL     1       1.444  14.673  -2.066  1.00  0.00     0.207 C 
ENDROOT
BRANCH   4   7
HETATM    7  N1  UNL     1      -1.162  16.661  -3.843  1.00  0.00    -0.342 N 
HETATM    8  C8  UNL     1      -1.300  16.791  -5.241  1.00  0.00     0.286 C 
HETATM    9  O4  UNL     1      -0.809  15.927  -6.035  1.00  0.00    -0.264 OA
ATOM     10  H1  UNL     1      -1.568  17.373  -3.236  1.00  0.00     0.163 HD
BRANCH   8  11
HETATM   11  C9  UNL     1      -2.006  17.913  -5.844  1.00  0.00     0.174 A 
HETATM   12  N2  UNL     1      -1.919  19.185  -5.406  1.00  0.00    -0.346 N 
HETATM   13  C10 UNL     1      -2.698  19.977  -6.185  1.00  0.00     0.107 A 
ATOM     14  H2  UNL     1      -1.358  19.501  -4.615  1.00  0.00     0.167 HD
HETATM   15  C11 UNL     1      -3.281  19.166  -7.132  1.00  0.00     0.107 A 
HETATM   16  N3  UNL     1      -2.828  17.931  -6.879  1.00  0.00    -0.346 N 
ATOM     17  H3  UNL     1      -3.086  17.106  -7.420  1.00  0.00     0.167 HD
ENDBRANCH   8  11
ENDBRANCH   4   7
BRANCH   3  18
HETATM   18  O3  UNL     1      -0.758  15.695  -0.946  1.00  0.00    -0.354 OA
BRANCH  18  19
HETATM   19  C4  UNL     1      -1.605  15.753   0.124  1.00  0.00     0.116 C 
HETATM   20  C5  UNL     1      -3.025  16.130  -0.207  1.00  0.00     0.039 C 
HETATM   21  C6  UNL     1      -1.100  16.645   1.240  1.00  0.00     0.039 C 
ENDBRANCH  18  19
ENDBRANCH   3  18
BRANCH   5  22
HETATM   22  O5  UNL     1       1.744  16.357  -3.765  1.00  0.00    -0.386 OA
HETATM   23  C13 UNL     1       2.208  17.656  -3.478  1.00  0.00     0.202 C 
ENDBRANCH   5  22
BRANCH   6  24
HETATM   24  O6  UNL     1       2.707  14.370  -2.564  1.00  0.00    -0.383 OA
HETATM   25  C15 UNL     1       3.694  14.647  -1.612  1.00  0.00     0.202 C 
ENDBRANCH   6  24
BRANCH   1  26
HETATM   26  O1  UNL     1       1.074  12.442  -1.487  1.00  0.00    -0.363 OA
HETATM   27  C1  UNL     1       0.910  12.721  -0.133  1.00  0.00     0.204 C 
ENDBRANCH   1  26
TORSDOF 7
ENDMDL
MODEL 5
REMARK VINA RESULT: -5.874964432      4.706      7.686
REMARK  7 active torsions:
REMARK  status: ('A' for Active; 'I' for Inactive)
REMARK    1  A    between atoms: O1_2  and  C2_3 
REMARK    2  A    between atoms: C3_5  and  O3_6 
REMARK    3  A    between atoms: O3_6  and  C4_7 
REMARK    4  A    between atoms: C7_10  and  N1_11 
REMARK       I    between atoms: N1_11  and  C8_13 
REMARK    5  A    between atoms: C8_13  and  C9_15 
REMARK    6  A    between atoms: C12_22  and  O5_23 
REMARK    7  A    between atoms: C14_25  and  O6_26 
ROOT
HETATM    1  C2  UNL     1      -0.670  15.556  -5.248  1.00  0.00     0.293 C 
HETATM    2  O2  UNL     1      -1.195  16.528  -6.085  1.00  0.00    -0.327 OA
HETATM    3  C3  UNL     1      -0.469  17.719  -6.044  1.00  0.00     0.288 C 
HETATM    4  C7  UNL     1       0.981  17.390  -5.720  1.00  0.00     0.171 C 
HETATM    5  C12 UNL     1       0.992  17.127  -4.214  1.00  0.00     0.182 C 
HETATM    6  C14 UNL     1      -0.100  16.116  -3.964  1.00  0.00     0.207 C 
ENDROOT
BRANCH   4   7
HETATM    7  N1  UNL     1       1.890  18.405  -6.133  1.00  0.00    -0.342 N 
HETATM    8  C8  UNL     1       2.496  18.391  -7.406  1.00  0.00     0.286 C 
HETATM    9  O4  UNL     1       2.252  17.463  -8.242  1.00  0.00    -0.264 OA
ATOM     10  H1  UNL     1       2.109  19.165  -5.488  1.00  0.00     0.163 HD
BRANCH   8  11
HETATM   11  C9  UNL     1       3.426  19.429  -7.829  1.00  0.00     0.174 A 
HETATM   12  N2  UNL     1       4.628  19.186  -8.388  1.00  0.00    -0.346 N 
HETATM   13  C10 UNL     1       5.237  20.367  -8.662  1.00  0.00     0.107 A 
ATOM     14  H2  UNL     1       5.017  18.262  -8.576  1.00  0.00     0.167 HD
HETATM   15  C11 UNL     1       4.382  21.367  -8.258  1.00  0.00     0.107 A 
HETATM   16  N3  UNL     1       3.304  20.744  -7.764  1.00  0.00    -0.346 N 
ATOM     17  H3  UNL     1       2.490  21.225  -7.384  1.00  0.00     0.167 HD
ENDBRANCH   8  11
ENDBRANCH   4   7
BRANCH   3  18
HETATM   18  O3  UNL     1      -0.966  18.434  -4.979  1.00  0.00    -0.354 OA
BRANCH  18  19
HETATM   19  C4  UNL     1      -1.385  19.708  -5.232  1.00  0.00     0.116 C 
HETATM   20  C5  UNL     1      -1.590  20.566  -4.011  1.00  0.00     0.039 C 
HETATM   21  C6  UNL     1      -2.629  19.769  -6.097  1.00  0.00     0.039 C 
ENDBRANCH  18  19
ENDBRANCH   3  18
BRANCH   5  22
HETATM   22  O5  UNL     1       2.231  16.706  -3.779  1.00  0.00    -0.386 OA
HETATM   23  C13 UNL     1       2.704  17.570  -2.773  1.00  0.00     0.202 C 
ENDBRANCH   5  22
BRANCH   6  24
HETATM   24  O6  UNL     1       0.415  15.061  -3.219  1.00  0.00    -0.383 OA
HETATM   25  C15 UNL     1      -0.105  15.071  -1.921  1.00  0.00     0.202 C 
ENDBRANCH   6  24
BRANCH   1  26
HETATM   26  O1  UNL     1      -1.764  14.747  -4.861  1.00  0.00    -0.363 OA
HETATM   27  C1  UNL     1      -1.545  13.410  -5.180  1.00  0.00     0.204 C 
ENDBRANCH   1  26
TORSDOF 7
ENDMDL
