MODEL 1
REMARK VINA RESULT: -7.080167385      0.000      0.000
REMARK  8 active torsions:
REMARK  status: ('A' for Active; 'I' for Inactive)
REMARK    1  A    between atoms: C3_6  and  C4_7 
REMARK    2  A    between atoms: C5_8  and  S1_9 
REMARK    3  A    between atoms: S1_9  and  N3_12 
REMARK    4  A    between atoms: N3_12  and  C6_14 
REMARK    5  A    between atoms: C6_14  and  C7_15 
REMARK    6  A    between atoms: C7_15  and  N4_16 
REMARK    7  A    between atoms: C12_23  and  C13_24 
REMARK    8  A    between atoms: C13_24  and  O4_25 
ROOT
HETATM    1  N1  UNL     1      -7.225  17.206  -9.811  1.00  0.00    -0.190 NA
HETATM    2  C1  UNL     1      -6.573  17.982  -9.251  1.00  0.00     0.119 C 
HETATM    3  C2  UNL     1      -5.746  18.982  -8.561  1.00  0.00     0.130 A 
HETATM    4  N2  UNL     1      -4.643  18.662  -7.960  1.00  0.00    -0.341 N 
ATOM      5  H2  UNL     1      -4.326  17.693  -7.957  1.00  0.00     0.167 HD
HETATM    6  C3  UNL     1      -3.930  19.592  -7.353  1.00  0.00     0.076 A 
HETATM    7  S2  UNL     1      -4.843  21.005  -7.629  1.00  0.00    -0.072 SA
HETATM    8  C12 UNL     1      -6.126  20.300  -8.536  1.00  0.00     0.045 A 
ENDROOT
BRANCH   8   9
HETATM    9  C13 UNL     1      -7.342  20.948  -9.135  1.00  0.00     0.213 C 
BRANCH   9  10
HETATM   10  O4  UNL     1      -6.999  21.267 -10.464  1.00  0.00    -0.396 OA
ATOM     11  H4  UNL     1      -6.181  21.748 -10.417  1.00  0.00     0.209 HD
ENDBRANCH   9  10
ENDBRANCH   8   9
BRANCH   6  12
HETATM   12  C4  UNL     1      -2.659  19.412  -6.621  1.00  0.00     0.050 C 
HETATM   13  C5  UNL     1      -1.738  18.569  -7.023  1.00  0.00     0.134 C 
BRANCH  13  14
HETATM   14  S1  UNL     1      -0.266  18.410  -6.115  1.00  0.00     0.248 S 
HETATM   15  O1  UNL     1       0.081  19.751  -5.523  1.00  0.00    -0.201 OA
HETATM   16  O2  UNL     1       0.834  17.954  -7.050  1.00  0.00    -0.201 OA
BRANCH  14  17
HETATM   17  N3  UNL     1      -0.466  17.275  -4.829  1.00  0.00    -0.314 N 
ATOM     18  H3  UNL     1      -0.049  17.337  -3.900  1.00  0.00     0.172 HD
BRANCH  17  19
HETATM   19  C6  UNL     1      -1.340  16.216  -5.312  1.00  0.00     0.162 C 
BRANCH  19  20
HETATM   20  C7  UNL     1      -1.599  15.185  -4.247  1.00  0.00     0.292 C 
BRANCH  20  21
HETATM   21  N4  UNL     1      -0.674  14.100  -4.284  1.00  0.00     0.094 N 
HETATM   22  C8  UNL     1      -0.966  13.189  -5.365  1.00  0.00     0.298 C 
HETATM   23  C9  UNL     1      -0.099  11.956  -5.312  1.00  0.00     0.198 C 
HETATM   24  O3  UNL     1      -0.216  11.274  -4.114  1.00  0.00    -0.388 OA
HETATM   25  C10 UNL     1      -0.846  11.957  -3.109  1.00  0.00     0.198 C 
HETATM   26  C11 UNL     1      -0.475  13.425  -3.032  1.00  0.00     0.298 C 
ENDBRANCH  20  21
ENDBRANCH  19  20
ENDBRANCH  17  19
ENDBRANCH  14  17
ENDBRANCH  13  14
ENDBRANCH   6  12
TORSDOF 8
ENDMDL
MODEL 2
REMARK VINA RESULT: -7.040612679      1.488      1.628
REMARK  8 active torsions:
REMARK  status: ('A' for Active; 'I' for Inactive)
REMARK    1  A    between atoms: C3_6  and  C4_7 
REMARK    2  A    between atoms: C5_8  and  S1_9 
REMARK    3  A    between atoms: S1_9  and  N3_12 
REMARK    4  A    between atoms: N3_12  and  C6_14 
REMARK    5  A    between atoms: C6_14  and  C7_15 
REMARK    6  A    between atoms: C7_15  and  N4_16 
REMARK    7  A    between atoms: C12_23  and  C13_24 
REMARK    8  A    between atoms: C13_24  and  O4_25 
ROOT
HETATM    1  N1  UNL     1      -6.850  17.645  -9.399  1.00  0.00    -0.190 NA
HETATM    2  C1  UNL     1      -5.992  18.107  -8.774  1.00  0.00     0.119 C 
HETATM    3  C2  UNL     1      -4.904  18.714  -7.994  1.00  0.00     0.130 A 
HETATM    4  N2  UNL     1      -3.783  18.098  -7.787  1.00  0.00    -0.341 N 
ATOM      5  H2  UNL     1      -3.636  17.164  -8.169  1.00  0.00     0.167 HD
HETATM    6  C3  UNL     1      -2.832  18.680  -7.081  1.00  0.00     0.076 A 
HETATM    7  S2  UNL     1      -3.531  20.181  -6.675  1.00  0.00    -0.072 SA
HETATM    8  C12 UNL     1      -5.050  19.968  -7.459  1.00  0.00     0.045 A 
ENDROOT
BRANCH   8   9
HETATM    9  C13 UNL     1      -6.226  20.901  -7.533  1.00  0.00     0.213 C 
BRANCH   9  10
HETATM   10  O4  UNL     1      -6.985  20.666  -6.369  1.00  0.00    -0.396 OA
ATOM     11  H4  UNL     1      -7.830  21.072  -6.519  1.00  0.00     0.209 HD
ENDBRANCH   9  10
ENDBRANCH   8   9
BRANCH   6  12
HETATM   12  C4  UNL     1      -1.502  18.132  -6.745  1.00  0.00     0.050 C 
HETATM   13  C5  UNL     1      -0.853  18.495  -5.664  1.00  0.00     0.134 C 
BRANCH  13  14
HETATM   14  S1  UNL     1       0.707  17.809  -5.330  1.00  0.00     0.248 S 
HETATM   15  O1  UNL     1       1.729  18.916  -5.328  1.00  0.00    -0.201 OA
HETATM   16  O2  UNL     1       1.036  16.801  -6.411  1.00  0.00    -0.201 OA
BRANCH  14  17
HETATM   17  N3  UNL     1       0.717  17.048  -3.780  1.00  0.00    -0.314 N 
ATOM     18  H3  UNL     1       1.536  16.688  -3.290  1.00  0.00     0.172 HD
BRANCH  17  19
HETATM   19  C6  UNL     1      -0.657  17.015  -3.300  1.00  0.00     0.162 C 
BRANCH  19  20
HETATM   20  C7  UNL     1      -1.028  15.653  -2.782  1.00  0.00     0.292 C 
BRANCH  20  21
HETATM   21  N4  UNL     1      -0.505  14.591  -3.578  1.00  0.00     0.094 N 
HETATM   22  C8  UNL     1      -1.389  14.260  -4.670  1.00  0.00     0.298 C 
HETATM   23  C9  UNL     1      -0.927  13.033  -5.416  1.00  0.00     0.198 C 
HETATM   24  O3  UNL     1      -0.802  11.926  -4.596  1.00  0.00    -0.388 OA
HETATM   25  C10 UNL     1      -0.834  12.185  -3.253  1.00  0.00     0.198 C 
HETATM   26  C11 UNL     1      -0.076  13.433  -2.845  1.00  0.00     0.298 C 
ENDBRANCH  20  21
ENDBRANCH  19  20
ENDBRANCH  17  19
ENDBRANCH  14  17
ENDBRANCH  13  14
ENDBRANCH   6  12
TORSDOF 8
ENDMDL
MODEL 3
REMARK VINA RESULT: -7.035585874      0.525      1.098
REMARK  8 active torsions:
REMARK  status: ('A' for Active; 'I' for Inactive)
REMARK    1  A    between atoms: C3_6  and  C4_7 
REMARK    2  A    between atoms: C5_8  and  S1_9 
REMARK    3  A    between atoms: S1_9  and  N3_12 
REMARK    4  A    between atoms: N3_12  and  C6_14 
REMARK    5  A    between atoms: C6_14  and  C7_15 
REMARK    6  A    between atoms: C7_15  and  N4_16 
REMARK    7  A    between atoms: C12_23  and  C13_24 
REMARK    8  A    between atoms: C13_24  and  O4_25 
ROOT
HETATM    1  N1  UNL     1      -7.206  17.216  -9.766  1.00  0.00    -0.190 NA
HETATM    2  C1  UNL     1      -6.550  18.008  -9.235  1.00  0.00     0.119 C 
HETATM    3  C2  UNL     1      -5.718  19.029  -8.581  1.00  0.00     0.130 A 
HETATM    4  N2  UNL     1      -4.614  18.726  -7.974  1.00  0.00    -0.341 N 
ATOM      5  H2  UNL     1      -4.300  17.757  -7.939  1.00  0.00     0.167 HD
HETATM    6  C3  UNL     1      -3.897  19.674  -7.401  1.00  0.00     0.076 A 
HETATM    7  S2  UNL     1      -4.806  21.079  -7.722  1.00  0.00    -0.072 SA
HETATM    8  C12 UNL     1      -6.094  20.348  -8.600  1.00  0.00     0.045 A 
ENDROOT
BRANCH   8   9
HETATM    9  C13 UNL     1      -7.310  20.979  -9.217  1.00  0.00     0.213 C 
BRANCH   9  10
HETATM   10  O4  UNL     1      -6.980  21.227 -10.564  1.00  0.00    -0.396 OA
ATOM     11  H4  UNL     1      -7.609  20.742 -11.083  1.00  0.00     0.209 HD
ENDBRANCH   9  10
ENDBRANCH   8   9
BRANCH   6  12
HETATM   12  C4  UNL     1      -2.624  19.515  -6.668  1.00  0.00     0.050 C 
HETATM   13  C5  UNL     1      -1.701  18.664  -7.051  1.00  0.00     0.134 C 
BRANCH  13  14
HETATM   14  S1  UNL     1      -0.227  18.531  -6.142  1.00  0.00     0.248 S 
HETATM   15  O1  UNL     1       0.317  19.916  -5.903  1.00  0.00    -0.201 OA
HETATM   16  O2  UNL     1       0.764  17.714  -6.943  1.00  0.00    -0.201 OA
BRANCH  14  17
HETATM   17  N3  UNL     1      -0.522  17.784  -4.614  1.00  0.00    -0.314 N 
ATOM     18  H3  UNL     1      -0.915  18.235  -3.788  1.00  0.00     0.172 HD
BRANCH  17  19
HETATM   19  C6  UNL     1      -0.106  16.393  -4.719  1.00  0.00     0.162 C 
BRANCH  19  20
HETATM   20  C7  UNL     1      -1.237  15.512  -5.174  1.00  0.00     0.292 C 
BRANCH  20  21
HETATM   21  N4  UNL     1      -1.369  14.325  -4.392  1.00  0.00     0.094 N 
HETATM   22  C8  UNL     1      -0.387  14.274  -3.335  1.00  0.00     0.298 C 
HETATM   23  C9  UNL     1      -0.410  12.952  -2.610  1.00  0.00     0.198 C 
HETATM   24  O3  UNL     1      -0.205  11.877  -3.455  1.00  0.00    -0.388 OA
HETATM   25  C10 UNL     1      -0.304  12.155  -4.791  1.00  0.00     0.198 C 
HETATM   26  C11 UNL     1      -1.433  13.104  -5.144  1.00  0.00     0.298 C 
ENDBRANCH  20  21
ENDBRANCH  19  20
ENDBRANCH  17  19
ENDBRANCH  14  17
ENDBRANCH  13  14
ENDBRANCH   6  12
TORSDOF 8
ENDMDL
MODEL 4
REMARK VINA RESULT: -7.020510892      2.468      3.048
REMARK  8 active torsions:
REMARK  status: ('A' for Active; 'I' for Inactive)
REMARK    1  A    between atoms: C3_6  and  C4_7 
REMARK    2  A    between atoms: C5_8  and  S1_9 
REMARK    3  A    between atoms: S1_9  and  N3_12 
REMARK    4  A    between atoms: N3_12  and  C6_14 
REMARK    5  A    between atoms: C6_14  and  C7_15 
REMARK    6  A    between atoms: C7_15  and  N4_16 
REMARK    7  A    between atoms: C12_23  and  C13_24 
REMARK    8  A    between atoms: C13_24  and  O4_25 
ROOT
HETATM    1  N1  UNL     1      -7.055  18.012  -9.812  1.00  0.00    -0.190 NA
HETATM    2  C1  UNL     1      -6.185  18.349  -9.127  1.00  0.00     0.119 C 
HETATM    3  C2  UNL     1      -5.075  18.797  -8.273  1.00  0.00     0.130 A 
HETATM    4  N2  UNL     1      -4.163  17.980  -7.851  1.00  0.00    -0.341 N 
ATOM      5  H2  UNL     1      -4.203  16.993  -8.108  1.00  0.00     0.167 HD
HETATM    6  C3  UNL     1      -3.184  18.423  -7.086  1.00  0.00     0.076 A 
HETATM    7  S2  UNL     1      -3.543  20.083  -6.941  1.00  0.00    -0.072 SA
HETATM    8  C12 UNL     1      -4.975  20.113  -7.899  1.00  0.00     0.045 A 
ENDROOT
BRANCH   8   9
HETATM    9  C13 UNL     1      -5.878  21.266  -8.231  1.00  0.00     0.213 C 
BRANCH   9  10
HETATM   10  O4  UNL     1      -5.397  21.802  -9.443  1.00  0.00    -0.396 OA
ATOM     11  H4  UNL     1      -5.666  22.712  -9.453  1.00  0.00     0.209 HD
ENDBRANCH   9  10
ENDBRANCH   8   9
BRANCH   6  12
HETATM   12  C4  UNL     1      -2.068  17.642  -6.515  1.00  0.00     0.050 C 
HETATM   13  C5  UNL     1      -0.861  18.141  -6.386  1.00  0.00     0.134 C 
BRANCH  13  14
HETATM   14  S1  UNL     1       0.403  17.166  -5.705  1.00  0.00     0.248 S 
HETATM   15  O1  UNL     1       1.558  17.131  -6.672  1.00  0.00    -0.201 OA
HETATM   16  O2  UNL     1      -0.130  15.767  -5.482  1.00  0.00    -0.201 OA
BRANCH  14  17
HETATM   17  N3  UNL     1       0.954  17.841  -4.214  1.00  0.00    -0.314 N 
ATOM     18  H3  UNL     1       1.510  18.689  -4.105  1.00  0.00     0.172 HD
BRANCH  17  19
HETATM   19  C6  UNL     1       0.479  16.980  -3.142  1.00  0.00     0.162 C 
BRANCH  19  20
HETATM   20  C7  UNL     1      -0.739  17.554  -2.470  1.00  0.00     0.292 C 
BRANCH  20  21
HETATM   21  N4  UNL     1      -1.599  16.555  -1.925  1.00  0.00     0.094 N 
HETATM   22  C8  UNL     1      -2.051  16.907  -0.601  1.00  0.00     0.298 C 
HETATM   23  C9  UNL     1      -2.824  15.785   0.047  1.00  0.00     0.198 C 
HETATM   24  O3  UNL     1      -2.094  14.612   0.126  1.00  0.00    -0.388 OA
HETATM   25  C10 UNL     1      -0.952  14.581  -0.626  1.00  0.00     0.198 C 
HETATM   26  C11 UNL     1      -1.096  15.212  -1.997  1.00  0.00     0.298 C 
ENDBRANCH  20  21
ENDBRANCH  19  20
ENDBRANCH  17  19
ENDBRANCH  14  17
ENDBRANCH  13  14
ENDBRANCH   6  12
TORSDOF 8
ENDMDL
MODEL 5
REMARK VINA RESULT: -6.922015169      3.041      9.235
REMARK  8 active torsions:
REMARK  status: ('A' for Active; 'I' for Inactive)
REMARK    1  A    between atoms: C3_6  and  C4_7 
REMARK    2  A    between atoms: C5_8  and  S1_9 
REMARK    3  A    between atoms: S1_9  and  N3_12 
REMARK    4  A    between atoms: N3_12  and  C6_14 
REMARK    5  A    between atoms: C6_14  and  C7_15 
REMARK    6  A    between atoms: C7_15  and  N4_16 
REMARK    7  A    between atoms: C12_23  and  C13_24 
REMARK    8  A    between atoms: C13_24  and  O4_25 
ROOT
HETATM    1  N1  UNL     1      -0.659  14.581  -4.638  1.00  0.00    -0.190 NA
HETATM    2  C1  UNL     1      -0.860  15.583  -5.181  1.00  0.00     0.119 C 
HETATM    3  C2  UNL     1      -1.102  16.868  -5.853  1.00  0.00     0.130 A 
HETATM    4  N2  UNL     1      -2.292  17.253  -6.188  1.00  0.00    -0.341 N 
ATOM      5  H2  UNL     1      -3.096  16.658  -5.987  1.00  0.00     0.167 HD
HETATM    6  C3  UNL     1      -2.465  18.415  -6.789  1.00  0.00     0.076 A 
HETATM    7  S2  UNL     1      -0.875  19.020  -6.900  1.00  0.00    -0.072 SA
HETATM    8  C12 UNL     1      -0.055  17.706  -6.145  1.00  0.00     0.045 A 
ENDROOT
BRANCH   8   9
HETATM    9  C13 UNL     1       1.412  17.519  -5.882  1.00  0.00     0.213 C 
BRANCH   9  10
HETATM   10  O4  UNL     1       1.975  17.084  -7.098  1.00  0.00    -0.396 OA
ATOM     11  H4  UNL     1       1.737  16.169  -7.185  1.00  0.00     0.209 HD
ENDBRANCH   9  10
ENDBRANCH   8   9
BRANCH   6  12
HETATM   12  C4  UNL     1      -3.739  19.010  -7.242  1.00  0.00     0.050 C 
HETATM   13  C5  UNL     1      -4.608  18.335  -7.956  1.00  0.00     0.134 C 
BRANCH  13  14
HETATM   14  S1  UNL     1      -6.087  19.097  -8.453  1.00  0.00     0.248 S 
HETATM   15  O1  UNL     1      -7.130  18.031  -8.666  1.00  0.00    -0.201 OA
HETATM   16  O2  UNL     1      -5.837  19.844  -9.746  1.00  0.00    -0.201 OA
BRANCH  14  17
HETATM   17  N3  UNL     1      -6.650  20.183  -7.234  1.00  0.00    -0.314 N 
ATOM     18  H3  UNL     1      -6.811  19.956  -6.253  1.00  0.00     0.172 HD
BRANCH  17  19
HETATM   19  C6  UNL     1      -6.854  21.479  -7.862  1.00  0.00     0.162 C 
BRANCH  19  20
HETATM   20  C7  UNL     1      -7.607  22.418  -6.960  1.00  0.00     0.292 C 
BRANCH  20  21
HETATM   21  N4  UNL     1      -7.187  23.775  -7.092  1.00  0.00     0.094 N 
HETATM   22  C8  UNL     1      -6.535  24.009  -8.359  1.00  0.00     0.298 C 
HETATM   23  C9  UNL     1      -5.941  25.393  -8.439  1.00  0.00     0.198 C 
HETATM   24  O3  UNL     1      -5.037  25.645  -7.423  1.00  0.00    -0.388 OA
HETATM   25  C10 UNL     1      -5.049  24.746  -6.392  1.00  0.00     0.198 C 
HETATM   26  C11 UNL     1      -6.437  24.292  -5.982  1.00  0.00     0.298 C 
ENDBRANCH  20  21
ENDBRANCH  19  20
ENDBRANCH  17  19
ENDBRANCH  14  17
ENDBRANCH  13  14
ENDBRANCH   6  12
TORSDOF 8
ENDMDL
