MODEL 1
REMARK VINA RESULT: -7.408319309      0.000      0.000
REMARK  5 active torsions:
REMARK  status: ('A' for Active; 'I' for Inactive)
REMARK    1  A    between atoms: C2_2  and  O1_3 
REMARK    2  A    between atoms: O1_3  and  C3_4 
REMARK    3  A    between atoms: C6_7  and  N1_8 
REMARK    4  A    between atoms: N1_8  and  C7_10 
REMARK    5  A    between atoms: C10_16  and  C11_17 
ROOT
HETATM    1  C7  UNL     1      44.122  -1.640  66.040  1.00  0.00     0.150 A 
HETATM    2  N2  UNL     1      43.151  -2.255  65.353  1.00  0.00    -0.330 N 
ATOM      3  H2  UNL     1      42.180  -2.216  65.665  1.00  0.00     0.168 HD
HETATM    4  C8  UNL     1      43.482  -2.904  64.274  1.00  0.00     0.089 A 
HETATM    5  C9  UNL     1      44.783  -2.937  63.882  1.00  0.00     0.049 A 
HETATM    6  S1  UNL     1      45.508  -2.005  65.123  1.00  0.00    -0.051 SA
HETATM    7  C10 UNL     1      45.269  -3.644  62.657  1.00  0.00    -0.028 C 
HETATM    8  C14 UNL     1      44.615  -4.818  62.092  1.00  0.00    -0.010 C 
HETATM    9  C15 UNL     1      43.953  -4.547  60.735  1.00  0.00     0.021 C 
HETATM   10  C16 UNL     1      45.567  -5.976  61.894  1.00  0.00     0.021 C 
HETATM   11  C17 UNL     1      43.458  -5.370  62.930  1.00  0.00     0.094 C 
HETATM   12  S2  UNL     1      42.388  -3.885  63.186  1.00  0.00    -0.110 SA
ENDROOT
BRANCH   1  13
HETATM   13  N1  UNL     1      44.041  -0.935  67.140  1.00  0.00    -0.337 N 
ATOM     14  H1  UNL     1      44.813  -0.979  67.805  1.00  0.00     0.168 HD
BRANCH  13  15
HETATM   15  C6  UNL     1      42.940  -0.125  67.443  1.00  0.00     0.034 A 
HETATM   16  C5  UNL     1      41.900  -0.058  66.539  1.00  0.00     0.032 A 
HETATM   17  C4  UNL     1      40.796   0.728  66.796  1.00  0.00     0.039 A 
HETATM   18  C3  UNL     1      40.699   1.464  67.954  1.00  0.00     0.068 A 
HETATM   19  C19 UNL     1      41.760   1.381  68.853  1.00  0.00     0.039 A 
HETATM   20  C18 UNL     1      42.865   0.609  68.620  1.00  0.00     0.032 A 
BRANCH  18  21
HETATM   21  O1  UNL     1      39.580   2.249  68.197  1.00  0.00    -0.352 OA
BRANCH  21  22
HETATM   22  C2  UNL     1      38.368   1.575  68.511  1.00  0.00     0.171 C 
HETATM   23  C1  UNL     1      37.226   2.202  67.761  1.00  0.00     0.034 C 
ENDBRANCH  21  22
ENDBRANCH  18  21
ENDBRANCH  13  15
ENDBRANCH   1  13
BRANCH   7  24
HETATM   24  C11 UNL     1      46.333  -3.125  62.097  1.00  0.00    -0.079 C 
HETATM   25  C12 UNL     1      46.231  -1.997  61.088  1.00  0.00     0.043 C 
HETATM   26  C13 UNL     1      47.706  -3.556  62.391  1.00  0.00     0.043 C 
ENDBRANCH   7  24
TORSDOF 5
ENDMDL
MODEL 2
REMARK VINA RESULT: -7.366307147      1.395      2.997
REMARK  5 active torsions:
REMARK  status: ('A' for Active; 'I' for Inactive)
REMARK    1  A    between atoms: C2_2  and  O1_3 
REMARK    2  A    between atoms: O1_3  and  C3_4 
REMARK    3  A    between atoms: C6_7  and  N1_8 
REMARK    4  A    between atoms: N1_8  and  C7_10 
REMARK    5  A    between atoms: C10_16  and  C11_17 
ROOT
HETATM    1  C7  UNL     1      44.647  -2.237  65.688  1.00  0.00     0.150 A 
HETATM    2  N2  UNL     1      45.957  -2.191  65.412  1.00  0.00    -0.330 N 
ATOM      3  H2  UNL     1      46.640  -1.972  66.138  1.00  0.00     0.168 HD
HETATM    4  C8  UNL     1      46.333  -2.432  64.189  1.00  0.00     0.089 A 
HETATM    5  C9  UNL     1      45.400  -2.722  63.244  1.00  0.00     0.049 A 
HETATM    6  S1  UNL     1      43.967  -2.630  64.178  1.00  0.00    -0.051 SA
HETATM    7  C10 UNL     1      45.724  -3.024  61.816  1.00  0.00    -0.028 C 
HETATM    8  C14 UNL     1      46.892  -2.491  61.125  1.00  0.00    -0.010 C 
HETATM    9  C15 UNL     1      47.934  -3.563  60.783  1.00  0.00     0.021 C 
HETATM   10  C16 UNL     1      46.535  -1.795  59.830  1.00  0.00     0.021 C 
HETATM   11  C17 UNL     1      47.703  -1.474  61.933  1.00  0.00     0.094 C 
HETATM   12  S2  UNL     1      48.032  -2.372  63.516  1.00  0.00    -0.110 SA
ENDROOT
BRANCH   1  13
HETATM   13  N1  UNL     1      44.031  -2.034  66.825  1.00  0.00    -0.337 N 
ATOM     14  H1  UNL     1      44.201  -2.682  67.595  1.00  0.00     0.168 HD
BRANCH  13  15
HETATM   15  C6  UNL     1      43.150  -0.965  67.031  1.00  0.00     0.034 A 
HETATM   16  C5  UNL     1      43.428  -0.062  68.036  1.00  0.00     0.032 A 
HETATM   17  C4  UNL     1      42.588   1.005  68.274  1.00  0.00     0.039 A 
HETATM   18  C3  UNL     1      41.454   1.201  67.520  1.00  0.00     0.068 A 
HETATM   19  C19 UNL     1      41.193   0.278  66.510  1.00  0.00     0.039 A 
HETATM   20  C18 UNL     1      42.011  -0.788  66.255  1.00  0.00     0.032 A 
BRANCH  18  21
HETATM   21  O1  UNL     1      40.619   2.281  67.773  1.00  0.00    -0.352 OA
BRANCH  21  22
HETATM   22  C2  UNL     1      39.249   1.999  68.025  1.00  0.00     0.171 C 
HETATM   23  C1  UNL     1      39.087   1.455  69.417  1.00  0.00     0.034 C 
ENDBRANCH  21  22
ENDBRANCH  18  21
ENDBRANCH  13  15
ENDBRANCH   1  13
BRANCH   7  24
HETATM   24  C11 UNL     1      44.886  -3.828  61.210  1.00  0.00    -0.079 C 
HETATM   25  C12 UNL     1      45.030  -5.335  61.294  1.00  0.00     0.043 C 
HETATM   26  C13 UNL     1      43.736  -3.369  60.420  1.00  0.00     0.043 C 
ENDBRANCH   7  24
TORSDOF 5
ENDMDL
MODEL 3
REMARK VINA RESULT: -7.359751839      1.551      2.339
REMARK  5 active torsions:
REMARK  status: ('A' for Active; 'I' for Inactive)
REMARK    1  A    between atoms: C2_2  and  O1_3 
REMARK    2  A    between atoms: O1_3  and  C3_4 
REMARK    3  A    between atoms: C6_7  and  N1_8 
REMARK    4  A    between atoms: N1_8  and  C7_10 
REMARK    5  A    between atoms: C10_16  and  C11_17 
ROOT
HETATM    1  C7  UNL     1      44.623  -2.331  65.348  1.00  0.00     0.150 A 
HETATM    2  N2  UNL     1      44.092  -2.581  64.144  1.00  0.00    -0.330 N 
ATOM      3  H2  UNL     1      43.084  -2.696  64.027  1.00  0.00     0.168 HD
HETATM    4  C8  UNL     1      44.900  -2.674  63.127  1.00  0.00     0.089 A 
HETATM    5  C9  UNL     1      46.236  -2.514  63.313  1.00  0.00     0.049 A 
HETATM    6  S1  UNL     1      46.286  -2.231  65.002  1.00  0.00    -0.051 SA
HETATM    7  C10 UNL     1      47.248  -2.591  62.215  1.00  0.00    -0.028 C 
HETATM    8  C14 UNL     1      47.069  -3.393  61.011  1.00  0.00    -0.010 C 
HETATM    9  C15 UNL     1      46.893  -2.548  59.742  1.00  0.00     0.021 C 
HETATM   10  C16 UNL     1      48.229  -4.330  60.757  1.00  0.00     0.021 C 
HETATM   11  C17 UNL     1      45.817  -4.274  61.009  1.00  0.00     0.094 C 
HETATM   12  S2  UNL     1      44.466  -3.072  61.396  1.00  0.00    -0.110 SA
ENDROOT
BRANCH   1  13
HETATM   13  N1  UNL     1      44.027  -2.196  66.505  1.00  0.00    -0.337 N 
ATOM     14  H1  UNL     1      44.178  -2.910  67.218  1.00  0.00     0.168 HD
BRANCH  13  15
HETATM   15  C6  UNL     1      43.191  -1.114  66.807  1.00  0.00     0.034 A 
HETATM   16  C5  UNL     1      43.555  -0.261  67.829  1.00  0.00     0.032 A 
HETATM   17  C4  UNL     1      42.762   0.817  68.161  1.00  0.00     0.039 A 
HETATM   18  C3  UNL     1      41.591   1.074  67.486  1.00  0.00     0.068 A 
HETATM   19  C19 UNL     1      41.243   0.202  66.457  1.00  0.00     0.039 A 
HETATM   20  C18 UNL     1      42.013  -0.874  66.110  1.00  0.00     0.032 A 
BRANCH  18  21
HETATM   21  O1  UNL     1      40.805   2.165  67.832  1.00  0.00    -0.352 OA
BRANCH  21  22
HETATM   22  C2  UNL     1      40.352   2.240  69.178  1.00  0.00     0.171 C 
HETATM   23  C1  UNL     1      39.091   1.437  69.338  1.00  0.00     0.034 C 
ENDBRANCH  21  22
ENDBRANCH  18  21
ENDBRANCH  13  15
ENDBRANCH   1  13
BRANCH   7  24
HETATM   24  C11 UNL     1      48.324  -1.865  62.393  1.00  0.00    -0.079 C 
HETATM   25  C12 UNL     1      48.377  -0.408  61.978  1.00  0.00     0.043 C 
HETATM   26  C13 UNL     1      49.556  -2.367  63.014  1.00  0.00     0.043 C 
ENDBRANCH   7  24
TORSDOF 5
ENDMDL
MODEL 4
REMARK VINA RESULT: -7.284374777      1.156      2.678
REMARK  5 active torsions:
REMARK  status: ('A' for Active; 'I' for Inactive)
REMARK    1  A    between atoms: C2_2  and  O1_3 
REMARK    2  A    between atoms: O1_3  and  C3_4 
REMARK    3  A    between atoms: C6_7  and  N1_8 
REMARK    4  A    between atoms: N1_8  and  C7_10 
REMARK    5  A    between atoms: C10_16  and  C11_17 
ROOT
HETATM    1  C7  UNL     1      44.417  -1.687  66.257  1.00  0.00     0.150 A 
HETATM    2  N2  UNL     1      45.664  -1.882  65.807  1.00  0.00    -0.330 N 
ATOM      3  H2  UNL     1      46.473  -1.611  66.366  1.00  0.00     0.168 HD
HETATM    4  C8  UNL     1      45.812  -2.429  64.634  1.00  0.00     0.089 A 
HETATM    5  C9  UNL     1      44.716  -2.782  63.914  1.00  0.00     0.049 A 
HETATM    6  S1  UNL     1      43.468  -2.295  64.981  1.00  0.00    -0.051 SA
HETATM    7  C10 UNL     1      44.775  -3.423  62.564  1.00  0.00    -0.028 C 
HETATM    8  C14 UNL     1      45.867  -3.216  61.621  1.00  0.00    -0.010 C 
HETATM    9  C15 UNL     1      46.723  -4.471  61.402  1.00  0.00     0.021 C 
HETATM   10  C16 UNL     1      45.384  -2.770  60.259  1.00  0.00     0.021 C 
HETATM   11  C17 UNL     1      46.899  -2.173  62.058  1.00  0.00     0.094 C 
HETATM   12  S2  UNL     1      47.379  -2.749  63.747  1.00  0.00    -0.110 SA
ENDROOT
BRANCH   1  13
HETATM   13  N1  UNL     1      44.016  -1.163  67.386  1.00  0.00    -0.337 N 
ATOM     14  H1  UNL     1      44.546  -1.366  68.234  1.00  0.00     0.168 HD
BRANCH  13  15
HETATM   15  C6  UNL     1      42.890  -0.335  67.481  1.00  0.00     0.034 A 
HETATM   16  C5  UNL     1      42.813   0.559  68.529  1.00  0.00     0.032 A 
HETATM   17  C4  UNL     1      41.723   1.393  68.663  1.00  0.00     0.039 A 
HETATM   18  C3  UNL     1      40.685   1.359  67.760  1.00  0.00     0.068 A 
HETATM   19  C19 UNL     1      40.784   0.449  66.709  1.00  0.00     0.039 A 
HETATM   20  C18 UNL     1      41.855  -0.388  66.556  1.00  0.00     0.032 A 
BRANCH  18  21
HETATM   21  O1  UNL     1      39.595   2.206  67.908  1.00  0.00    -0.352 OA
BRANCH  21  22
HETATM   22  C2  UNL     1      38.430   1.666  68.519  1.00  0.00     0.171 C 
HETATM   23  C1  UNL     1      37.218   2.010  67.701  1.00  0.00     0.034 C 
ENDBRANCH  21  22
ENDBRANCH  18  21
ENDBRANCH  13  15
ENDBRANCH   1  13
BRANCH   7  24
HETATM   24  C11 UNL     1      43.771  -4.214  62.276  1.00  0.00    -0.079 C 
HETATM   25  C12 UNL     1      43.650  -5.598  62.885  1.00  0.00     0.043 C 
HETATM   26  C13 UNL     1      42.674  -3.849  61.371  1.00  0.00     0.043 C 
ENDBRANCH   7  24
TORSDOF 5
ENDMDL
MODEL 5
REMARK VINA RESULT: -7.252010143      1.814      2.634
REMARK  5 active torsions:
REMARK  status: ('A' for Active; 'I' for Inactive)
REMARK    1  A    between atoms: C2_2  and  O1_3 
REMARK    2  A    between atoms: O1_3  and  C3_4 
REMARK    3  A    between atoms: C6_7  and  N1_8 
REMARK    4  A    between atoms: N1_8  and  C7_10 
REMARK    5  A    between atoms: C10_16  and  C11_17 
ROOT
HETATM    1  C7  UNL     1      43.615  -2.573  64.060  1.00  0.00     0.150 A 
HETATM    2  N2  UNL     1      43.389  -2.369  62.755  1.00  0.00    -0.330 N 
ATOM      3  H2  UNL     1      42.444  -2.218  62.402  1.00  0.00     0.168 HD
HETATM    4  C8  UNL     1      44.414  -2.370  61.950  1.00  0.00     0.089 A 
HETATM    5  C9  UNL     1      45.661  -2.572  62.450  1.00  0.00     0.049 A 
HETATM    6  S1  UNL     1      45.305  -2.765  64.114  1.00  0.00    -0.051 SA
HETATM    7  C10 UNL     1      46.903  -2.582  61.617  1.00  0.00    -0.028 C 
HETATM    8  C14 UNL     1      46.927  -2.975  60.214  1.00  0.00    -0.010 C 
HETATM    9  C15 UNL     1      47.227  -1.807  59.264  1.00  0.00     0.021 C 
HETATM   10  C16 UNL     1      47.954  -4.049  59.927  1.00  0.00     0.021 C 
HETATM   11  C17 UNL     1      45.599  -3.517  59.678  1.00  0.00     0.094 C 
HETATM   12  S2  UNL     1      44.398  -2.187  60.131  1.00  0.00    -0.110 SA
ENDROOT
BRANCH   1  13
HETATM   13  N1  UNL     1      42.762  -2.618  65.051  1.00  0.00    -0.337 N 
ATOM     14  H1  UNL     1      42.375  -3.522  65.321  1.00  0.00     0.168 HD
BRANCH  13  15
HETATM   15  C6  UNL     1      42.358  -1.478  65.757  1.00  0.00     0.034 A 
HETATM   16  C5  UNL     1      41.121  -0.933  65.480  1.00  0.00     0.032 A 
HETATM   17  C4  UNL     1      40.682   0.190  66.150  1.00  0.00     0.039 A 
HETATM   18  C3  UNL     1      41.459   0.796  67.109  1.00  0.00     0.068 A 
HETATM   19  C19 UNL     1      42.704   0.228  67.374  1.00  0.00     0.039 A 
HETATM   20  C18 UNL     1      43.161  -0.884  66.722  1.00  0.00     0.032 A 
BRANCH  18  21
HETATM   21  O1  UNL     1      41.002   1.925  67.775  1.00  0.00    -0.352 OA
BRANCH  21  22
HETATM   22  C2  UNL     1      40.703   1.788  69.159  1.00  0.00     0.171 C 
HETATM   23  C1  UNL     1      39.251   1.443  69.336  1.00  0.00     0.034 C 
ENDBRANCH  21  22
ENDBRANCH  18  21
ENDBRANCH  13  15
ENDBRANCH   1  13
BRANCH   7  24
HETATM   24  C11 UNL     1      47.992  -2.192  62.231  1.00  0.00    -0.079 C 
HETATM   25  C12 UNL     1      48.398  -0.732  62.281  1.00  0.00     0.043 C 
HETATM   26  C13 UNL     1      48.905  -3.102  62.937  1.00  0.00     0.043 C 
ENDBRANCH   7  24
TORSDOF 5
ENDMDL
