MODEL 1
REMARK VINA RESULT: -8.966600931      0.000      0.000
REMARK  7 active torsions:
REMARK  status: ('A' for Active; 'I' for Inactive)
REMARK    1  A    between atoms: C2_2  and  C5_5 
REMARK    2  A    between atoms: C5_5  and  S1_6 
REMARK    3  A    between atoms: C5_5  and  C15_25 
REMARK    4  A    between atoms: S1_6  and  C6_7 
REMARK       I    between atoms: N3_13  and  C8_15 
REMARK    5  A    between atoms: C8_15  and  C9_17 
REMARK    6  A    between atoms: C15_25  and  O2_26 
REMARK    7  A    between atoms: N4_28  and  O3_30 
ROOT
HETATM    1  C6  UNL     1      14.510   3.482  -7.047  1.00  0.00     0.130 A 
HETATM    2  N1  UNL     1      15.155   2.704  -7.901  1.00  0.00    -0.286 N 
ATOM      3  H1  UNL     1      15.550   1.819  -7.583  1.00  0.00     0.188 HD
HETATM    4  N2  UNL     1      15.287   3.053  -9.115  1.00  0.00    -0.278 N 
ATOM      5  H2  UNL     1      15.782   2.458  -9.779  1.00  0.00     0.189 HD
HETATM    6  C7  UNL     1      14.760   4.221  -9.504  1.00  0.00     0.168 A 
HETATM    7  N3  UNL     1      14.790   4.754 -10.705  1.00  0.00    -0.302 N 
ATOM      8  H3  UNL     1      15.252   4.274 -11.476  1.00  0.00     0.171 HD
HETATM    9  C8  UNL     1      14.171   6.002 -10.905  1.00  0.00     0.257 C 
HETATM   10  O1  UNL     1      13.095   6.307 -10.340  1.00  0.00    -0.267 OA
HETATM   11  S2  UNL     1      14.069   4.793  -8.052  1.00  0.00    -0.026 SA
ENDROOT
BRANCH   1  12
HETATM   12  S1  UNL     1      14.208   3.183  -5.288  1.00  0.00    -0.089 SA
BRANCH  12  13
HETATM   13  C5  UNL     1      15.484   2.087  -4.611  1.00  0.00     0.138 C 
BRANCH  13  14
HETATM   14  C2  UNL     1      14.859   1.320  -3.466  1.00  0.00    -0.031 C 
HETATM   15  C1  UNL     1      14.697   2.186  -2.236  1.00  0.00     0.016 C 
HETATM   16  C3  UNL     1      13.517   0.769  -3.916  1.00  0.00     0.016 C 
HETATM   17  C4  UNL     1      15.724   0.128  -3.078  1.00  0.00     0.016 C 
ENDBRANCH  13  14
BRANCH  13  18
HETATM   18  C15 UNL     1      16.625   2.862  -4.100  1.00  0.00     0.150 C 
HETATM   19  N4  UNL     1      17.790   2.358  -3.988  1.00  0.00    -0.250 N 
ATOM     20  H4  UNL     1      17.916   1.385  -4.267  1.00  0.00     0.196 HD
BRANCH  18  21
HETATM   21  O2  UNL     1      16.413   4.182  -3.730  1.00  0.00    -0.347 OA
ATOM     22  H2  UNL     1      17.118   4.806  -3.856  1.00  0.00     0.219 HD
ENDBRANCH  18  21
BRANCH  19  23
HETATM   23  O3  UNL     1      18.882   3.034  -3.520  1.00  0.00    -0.288 OA
ATOM     24  H3  UNL     1      19.767   2.917  -3.846  1.00  0.00     0.244 HD
ENDBRANCH  19  23
ENDBRANCH  13  18
ENDBRANCH  12  13
ENDBRANCH   1  12
BRANCH   9  25
HETATM   25  C9  UNL     1      14.794   6.984 -11.800  1.00  0.00     0.032 A 
HETATM   26  C10 UNL     1      16.117   6.839 -12.123  1.00  0.00     0.020 A 
HETATM   27  C11 UNL     1      16.700   7.760 -12.963  1.00  0.00     0.043 A 
HETATM   28  C12 UNL     1      15.997   8.817 -13.485  1.00  0.00     0.116 A 
HETATM   29  F1  UNL     1      16.573   9.710 -14.303  1.00  0.00    -0.206 F 
HETATM   30  C13 UNL     1      14.666   8.934 -13.141  1.00  0.00     0.043 A 
HETATM   31  C14 UNL     1      14.049   8.039 -12.308  1.00  0.00     0.020 A 
ENDBRANCH   9  25
TORSDOF 7
ENDMDL
MODEL 2
REMARK VINA RESULT: -8.388919184      7.529      9.504
REMARK  7 active torsions:
REMARK  status: ('A' for Active; 'I' for Inactive)
REMARK    1  A    between atoms: C2_2  and  C5_5 
REMARK    2  A    between atoms: C5_5  and  S1_6 
REMARK    3  A    between atoms: C5_5  and  C15_25 
REMARK    4  A    between atoms: S1_6  and  C6_7 
REMARK       I    between atoms: N3_13  and  C8_15 
REMARK    5  A    between atoms: C8_15  and  C9_17 
REMARK    6  A    between atoms: C15_25  and  O2_26 
REMARK    7  A    between atoms: N4_28  and  O3_30 
ROOT
HETATM    1  C6  UNL     1       9.459  10.497 -10.197  1.00  0.00     0.130 A 
HETATM    2  N1  UNL     1       9.624  11.416 -11.135  1.00  0.00    -0.286 N 
ATOM      3  H1  UNL     1       8.898  12.116 -11.294  1.00  0.00     0.188 HD
HETATM    4  N2  UNL     1      10.680  11.432 -11.840  1.00  0.00    -0.278 N 
ATOM      5  H2  UNL     1      10.814  12.137 -12.564  1.00  0.00     0.189 HD
HETATM    6  C7  UNL     1      11.614  10.500 -11.611  1.00  0.00     0.168 A 
HETATM    7  N3  UNL     1      12.764  10.349 -12.228  1.00  0.00    -0.302 N 
ATOM      8  H3  UNL     1      13.039  10.982 -12.980  1.00  0.00     0.171 HD
HETATM    9  C8  UNL     1      13.610   9.297 -11.832  1.00  0.00     0.257 C 
HETATM   10  O1  UNL     1      13.734   8.962 -10.631  1.00  0.00    -0.267 OA
HETATM   11  S2  UNL     1      10.910   9.604 -10.341  1.00  0.00    -0.026 SA
ENDROOT
BRANCH   1  12
HETATM   12  S1  UNL     1       8.045  10.292  -9.086  1.00  0.00    -0.089 SA
BRANCH  12  13
HETATM   13  C5  UNL     1       8.146  11.478  -7.718  1.00  0.00     0.138 C 
BRANCH  13  14
HETATM   14  C2  UNL     1       8.084  10.687  -6.429  1.00  0.00    -0.031 C 
HETATM   15  C1  UNL     1       7.336  11.437  -5.348  1.00  0.00     0.016 C 
HETATM   16  C3  UNL     1       7.425   9.346  -6.705  1.00  0.00     0.016 C 
HETATM   17  C4  UNL     1       9.484  10.399  -5.904  1.00  0.00     0.016 C 
ENDBRANCH  13  14
BRANCH  13  18
HETATM   18  C15 UNL     1       7.015  12.419  -7.755  1.00  0.00     0.150 C 
HETATM   19  N4  UNL     1       5.889  12.104  -8.261  1.00  0.00    -0.250 N 
ATOM     20  H4  UNL     1       5.787  11.166  -8.649  1.00  0.00     0.196 HD
BRANCH  18  21
HETATM   21  O2  UNL     1       7.194  13.686  -7.218  1.00  0.00    -0.347 OA
ATOM     22  H2  UNL     1       6.449  14.114  -6.812  1.00  0.00     0.219 HD
ENDBRANCH  18  21
BRANCH  19  23
HETATM   23  O3  UNL     1       4.809  12.940  -8.321  1.00  0.00    -0.288 OA
ATOM     24  H3  UNL     1       4.366  13.300  -7.561  1.00  0.00     0.244 HD
ENDBRANCH  19  23
ENDBRANCH  13  18
ENDBRANCH  12  13
ENDBRANCH   1  12
BRANCH   9  25
HETATM   25  C9  UNL     1      14.375   8.562 -12.846  1.00  0.00     0.032 A 
HETATM   26  C10 UNL     1      15.158   7.510 -12.451  1.00  0.00     0.020 A 
HETATM   27  C11 UNL     1      15.875   6.822 -13.403  1.00  0.00     0.043 A 
HETATM   28  C12 UNL     1      15.828   7.157 -14.734  1.00  0.00     0.116 A 
HETATM   29  F1  UNL     1      16.530   6.481 -15.655  1.00  0.00    -0.206 F 
HETATM   30  C13 UNL     1      15.029   8.221 -15.099  1.00  0.00     0.043 A 
HETATM   31  C14 UNL     1      14.300   8.932 -14.182  1.00  0.00     0.020 A 
ENDBRANCH   9  25
TORSDOF 7
ENDMDL
MODEL 3
REMARK VINA RESULT: -8.188938969      7.298     10.107
REMARK  7 active torsions:
REMARK  status: ('A' for Active; 'I' for Inactive)
REMARK    1  A    between atoms: C2_2  and  C5_5 
REMARK    2  A    between atoms: C5_5  and  S1_6 
REMARK    3  A    between atoms: C5_5  and  C15_25 
REMARK    4  A    between atoms: S1_6  and  C6_7 
REMARK       I    between atoms: N3_13  and  C8_15 
REMARK    5  A    between atoms: C8_15  and  C9_17 
REMARK    6  A    between atoms: C15_25  and  O2_26 
REMARK    7  A    between atoms: N4_28  and  O3_30 
ROOT
HETATM    1  C6  UNL     1      12.188  10.183 -12.607  1.00  0.00     0.130 A 
HETATM    2  N1  UNL     1      11.721  11.417 -12.714  1.00  0.00    -0.286 N 
ATOM      3  H1  UNL     1      12.145  12.063 -13.381  1.00  0.00     0.188 HD
HETATM    4  N2  UNL     1      10.750  11.802 -11.992  1.00  0.00    -0.278 N 
ATOM      5  H2  UNL     1      10.386  12.751 -12.070  1.00  0.00     0.189 HD
HETATM    6  C7  UNL     1      10.216  10.932 -11.125  1.00  0.00     0.168 A 
HETATM    7  N3  UNL     1       9.216  11.138 -10.298  1.00  0.00    -0.302 N 
ATOM      8  H3  UNL     1       8.748  12.043 -10.261  1.00  0.00     0.171 HD
HETATM    9  C8  UNL     1       8.804  10.083  -9.462  1.00  0.00     0.257 C 
HETATM   10  O1  UNL     1       8.781   8.894  -9.857  1.00  0.00    -0.267 OA
HETATM   11  S2  UNL     1      11.167   9.542 -11.394  1.00  0.00    -0.026 SA
ENDROOT
BRANCH   1  12
HETATM   12  S1  UNL     1      13.551   9.431 -13.529  1.00  0.00    -0.089 SA
BRANCH  12  13
HETATM   13  C5  UNL     1      14.751   8.696 -12.385  1.00  0.00     0.138 C 
BRANCH  13  14
HETATM   14  C2  UNL     1      15.940   8.245 -13.205  1.00  0.00    -0.031 C 
HETATM   15  C1  UNL     1      16.662   7.087 -12.552  1.00  0.00     0.016 C 
HETATM   16  C3  UNL     1      15.462   7.864 -14.596  1.00  0.00     0.016 C 
HETATM   17  C4  UNL     1      16.943   9.378 -13.371  1.00  0.00     0.016 C 
ENDBRANCH  13  14
BRANCH  13  18
HETATM   18  C15 UNL     1      14.174   7.529 -11.698  1.00  0.00     0.150 C 
HETATM   19  N4  UNL     1      13.507   6.639 -12.320  1.00  0.00    -0.250 N 
ATOM     20  H4  UNL     1      13.378   6.757 -13.325  1.00  0.00     0.196 HD
BRANCH  18  21
HETATM   21  O2  UNL     1      14.371   7.405 -10.330  1.00  0.00    -0.347 OA
ATOM     22  H2  UNL     1      13.646   7.605  -9.750  1.00  0.00     0.219 HD
ENDBRANCH  18  21
BRANCH  19  23
HETATM   23  O3  UNL     1      12.951   5.538 -11.731  1.00  0.00    -0.288 OA
ATOM     24  H3  UNL     1      12.017   5.399 -11.626  1.00  0.00     0.244 HD
ENDBRANCH  19  23
ENDBRANCH  13  18
ENDBRANCH  12  13
ENDBRANCH   1  12
BRANCH   9  25
HETATM   25  C9  UNL     1       8.385  10.371  -8.086  1.00  0.00     0.032 A 
HETATM   26  C10 UNL     1       8.341   9.346  -7.179  1.00  0.00     0.020 A 
HETATM   27  C11 UNL     1       7.949   9.618  -5.888  1.00  0.00     0.043 A 
HETATM   28  C12 UNL     1       7.600  10.883  -5.484  1.00  0.00     0.116 A 
HETATM   29  F1  UNL     1       7.219  11.139  -4.224  1.00  0.00    -0.206 F 
HETATM   30  C13 UNL     1       7.656  11.893  -6.421  1.00  0.00     0.043 A 
HETATM   31  C14 UNL     1       8.041  11.664  -7.716  1.00  0.00     0.020 A 
ENDBRANCH   9  25
TORSDOF 7
ENDMDL
MODEL 4
REMARK VINA RESULT: -8.135389328      6.171      7.394
REMARK  7 active torsions:
REMARK  status: ('A' for Active; 'I' for Inactive)
REMARK    1  A    between atoms: C2_2  and  C5_5 
REMARK    2  A    between atoms: C5_5  and  S1_6 
REMARK    3  A    between atoms: C5_5  and  C15_25 
REMARK    4  A    between atoms: S1_6  and  C6_7 
REMARK       I    between atoms: N3_13  and  C8_15 
REMARK    5  A    between atoms: C8_15  and  C9_17 
REMARK    6  A    between atoms: C15_25  and  O2_26 
REMARK    7  A    between atoms: N4_28  and  O3_30 
ROOT
HETATM    1  C6  UNL     1      10.918   8.573  -6.941  1.00  0.00     0.130 A 
HETATM    2  N1  UNL     1      10.984   7.252  -6.994  1.00  0.00    -0.286 N 
ATOM      3  H1  UNL     1      10.630   6.695  -6.215  1.00  0.00     0.188 HD
HETATM    4  N2  UNL     1      11.487   6.673  -8.007  1.00  0.00    -0.278 N 
ATOM      5  H2  UNL     1      11.540   5.656  -8.054  1.00  0.00     0.189 HD
HETATM    6  C7  UNL     1      11.945   7.430  -9.012  1.00  0.00     0.168 A 
HETATM    7  N3  UNL     1      12.496   7.024 -10.134  1.00  0.00    -0.302 N 
ATOM      8  H3  UNL     1      12.617   6.030 -10.324  1.00  0.00     0.171 HD
HETATM    9  C8  UNL     1      12.914   7.990 -11.068  1.00  0.00     0.257 C 
HETATM   10  O1  UNL     1      12.258   9.036 -11.279  1.00  0.00    -0.267 OA
HETATM   11  S2  UNL     1      11.623   9.005  -8.438  1.00  0.00    -0.026 SA
ENDROOT
BRANCH   1  12
HETATM   12  S1  UNL     1      10.249   9.596  -5.607  1.00  0.00    -0.089 SA
BRANCH  12  13
HETATM   13  C5  UNL     1       8.468   9.303  -5.428  1.00  0.00     0.138 C 
BRANCH  13  14
HETATM   14  C2  UNL     1       7.974  10.194  -4.309  1.00  0.00    -0.031 C 
HETATM   15  C1  UNL     1       6.879   9.528  -3.505  1.00  0.00     0.016 C 
HETATM   16  C3  UNL     1       9.148  10.560  -3.416  1.00  0.00     0.016 C 
HETATM   17  C4  UNL     1       7.411  11.496  -4.863  1.00  0.00     0.016 C 
ENDBRANCH  13  14
BRANCH  13  18
HETATM   18  C15 UNL     1       8.200   7.900  -5.074  1.00  0.00     0.150 C 
HETATM   19  N4  UNL     1       7.146   7.295  -5.458  1.00  0.00    -0.250 N 
ATOM     20  H4  UNL     1       6.479   7.816  -6.028  1.00  0.00     0.196 HD
BRANCH  18  21
HETATM   21  O2  UNL     1       9.131   7.226  -4.296  1.00  0.00    -0.347 OA
ATOM     22  H2  UNL     1       9.003   6.297  -4.143  1.00  0.00     0.219 HD
ENDBRANCH  18  21
BRANCH  19  23
HETATM   23  O3  UNL     1       6.849   5.995  -5.157  1.00  0.00    -0.288 OA
ATOM     24  H3  UNL     1       6.198   5.474  -5.612  1.00  0.00     0.244 HD
ENDBRANCH  19  23
ENDBRANCH  13  18
ENDBRANCH  12  13
ENDBRANCH   1  12
BRANCH   9  25
HETATM   25  C9  UNL     1      14.154   7.777 -11.823  1.00  0.00     0.032 A 
HETATM   26  C10 UNL     1      15.045   6.835 -11.381  1.00  0.00     0.020 A 
HETATM   27  C11 UNL     1      16.207   6.636 -12.091  1.00  0.00     0.043 A 
HETATM   28  C12 UNL     1      16.499   7.351 -13.226  1.00  0.00     0.116 A 
HETATM   29  F1  UNL     1      17.634   7.150 -13.911  1.00  0.00    -0.206 F 
HETATM   30  C13 UNL     1      15.580   8.291 -13.645  1.00  0.00     0.043 A 
HETATM   31  C14 UNL     1      14.412   8.520 -12.966  1.00  0.00     0.020 A 
ENDBRANCH   9  25
TORSDOF 7
ENDMDL
MODEL 5
REMARK VINA RESULT: -8.103253895      7.756     10.158
REMARK  7 active torsions:
REMARK  status: ('A' for Active; 'I' for Inactive)
REMARK    1  A    between atoms: C2_2  and  C5_5 
REMARK    2  A    between atoms: C5_5  and  S1_6 
REMARK    3  A    between atoms: C5_5  and  C15_25 
REMARK    4  A    between atoms: S1_6  and  C6_7 
REMARK       I    between atoms: N3_13  and  C8_15 
REMARK    5  A    between atoms: C8_15  and  C9_17 
REMARK    6  A    between atoms: C15_25  and  O2_26 
REMARK    7  A    between atoms: N4_28  and  O3_30 
ROOT
HETATM    1  C6  UNL     1       9.802  10.938 -10.603  1.00  0.00     0.130 A 
HETATM    2  N1  UNL     1      10.116  11.843 -11.517  1.00  0.00    -0.286 N 
ATOM      3  H1  UNL     1       9.487  12.629 -11.689  1.00  0.00     0.188 HD
HETATM    4  N2  UNL     1      11.193  11.739 -12.181  1.00  0.00    -0.278 N 
ATOM      5  H2  UNL     1      11.441  12.433 -12.885  1.00  0.00     0.189 HD
HETATM    6  C7  UNL     1      11.996  10.697 -11.934  1.00  0.00     0.168 A 
HETATM    7  N3  UNL     1      13.143  10.414 -12.511  1.00  0.00    -0.302 N 
ATOM      8  H3  UNL     1      13.522  11.020 -13.239  1.00  0.00     0.171 HD
HETATM    9  C8  UNL     1      13.837   9.260 -12.103  1.00  0.00     0.257 C 
HETATM   10  O1  UNL     1      13.872   8.896 -10.905  1.00  0.00    -0.267 OA
HETATM   11  S2  UNL     1      11.137   9.876 -10.709  1.00  0.00    -0.026 SA
ENDROOT
BRANCH   1  12
HETATM   12  S1  UNL     1       8.331  10.891  -9.550  1.00  0.00    -0.089 SA
BRANCH  12  13
HETATM   13  C5  UNL     1       8.326  12.308  -8.418  1.00  0.00     0.138 C 
BRANCH  13  14
HETATM   14  C2  UNL     1       7.007  12.289  -7.676  1.00  0.00    -0.031 C 
HETATM   15  C1  UNL     1       6.259  13.594  -7.832  1.00  0.00     0.016 C 
HETATM   16  C3  UNL     1       6.172  11.127  -8.187  1.00  0.00     0.016 C 
HETATM   17  C4  UNL     1       7.228  12.060  -6.187  1.00  0.00     0.016 C 
ENDBRANCH  13  14
BRANCH  13  18
HETATM   18  C15 UNL     1       8.437  13.574  -9.160  1.00  0.00     0.150 C 
HETATM   19  N4  UNL     1       9.048  14.586  -8.684  1.00  0.00    -0.250 N 
ATOM     20  H4  UNL     1       9.467  14.497  -7.758  1.00  0.00     0.196 HD
BRANCH  18  21
HETATM   21  O2  UNL     1       7.854  13.655 -10.416  1.00  0.00    -0.347 OA
ATOM     22  H2  UNL     1       6.984  14.032 -10.487  1.00  0.00     0.219 HD
ENDBRANCH  18  21
BRANCH  19  23
HETATM   23  O3  UNL     1       9.180  15.783  -9.331  1.00  0.00    -0.288 OA
ATOM     24  H3  UNL     1       8.846  15.961 -10.203  1.00  0.00     0.244 HD
ENDBRANCH  19  23
ENDBRANCH  13  18
ENDBRANCH  12  13
ENDBRANCH   1  12
BRANCH   9  25
HETATM   25  C9  UNL     1      14.546   8.452 -13.102  1.00  0.00     0.032 A 
HETATM   26  C10 UNL     1      15.442   7.508 -12.674  1.00  0.00     0.020 A 
HETATM   27  C11 UNL     1      16.106   6.750 -13.611  1.00  0.00     0.043 A 
HETATM   28  C12 UNL     1      15.899   6.913 -14.959  1.00  0.00     0.116 A 
HETATM   29  F1  UNL     1      16.550   6.171 -15.866  1.00  0.00    -0.206 F 
HETATM   30  C13 UNL     1      14.990   7.872 -15.357  1.00  0.00     0.043 A 
HETATM   31  C14 UNL     1      14.309   8.646 -14.455  1.00  0.00     0.020 A 
ENDBRANCH   9  25
TORSDOF 7
ENDMDL
