MODEL 1
REMARK VINA RESULT: -6.980039506      0.000      0.000
REMARK  6 active torsions:
REMARK  status: ('A' for Active; 'I' for Inactive)
REMARK    1  A    between atoms: C1_2  and  C2_3 
REMARK       I    between atoms: C1_2  and  N2_13 
REMARK    2  A    between atoms: C2_3  and  O2_4 
REMARK    3  A    between atoms: O2_4  and  C3_5 
REMARK    4  A    between atoms: C3_5  and  C4_7 
REMARK    5  A    between atoms: N2_13  and  N3_15 
REMARK    6  A    between atoms: C8_17  and  C9_18 
ROOT
HETATM    1  O1  UNL     1      -0.449 -19.245  -4.137  1.00  0.00    -0.269 OA
HETATM    2  C1  UNL     1      -1.531 -19.402  -4.755  1.00  0.00     0.260 C 
HETATM    3  N2  UNL     1      -1.796 -18.618  -5.927  1.00  0.00    -0.269 N 
ATOM      4  H2  UNL     1      -2.680 -18.757  -6.417  1.00  0.00     0.190 HD
ENDROOT
BRANCH   2   5
HETATM    5  C2  UNL     1      -2.493 -20.394  -4.249  1.00  0.00     0.283 C 
BRANCH   5   6
HETATM    6  O2  UNL     1      -2.590 -21.487  -5.139  1.00  0.00    -0.307 OA
BRANCH   6   7
HETATM    7  C3  UNL     1      -3.700 -21.674  -5.946  1.00  0.00     0.310 C 
HETATM    8  O3  UNL     1      -4.341 -20.683  -6.377  1.00  0.00    -0.258 OA
BRANCH   7   9
HETATM    9  C4  UNL     1      -4.156 -23.027  -6.316  1.00  0.00     0.108 A 
HETATM   10  C5  UNL     1      -5.123 -23.364  -7.237  1.00  0.00     0.037 A 
HETATM   11  C6  UNL     1      -5.253 -24.733  -7.289  1.00  0.00     0.019 A 
HETATM   12  C7  UNL     1      -4.345 -25.225  -6.383  1.00  0.00     0.088 A 
HETATM   13  N1  UNL     1      -3.704 -24.186  -5.818  1.00  0.00    -0.361 N 
ATOM     14  H1  UNL     1      -2.976 -24.268  -5.109  1.00  0.00     0.165 HD
ENDBRANCH   7   9
ENDBRANCH   6   7
ENDBRANCH   5   6
ENDBRANCH   2   5
BRANCH   3  15
HETATM   15  N3  UNL     1      -0.912 -17.688  -6.417  1.00  0.00    -0.307 N 
HETATM   16  C8  UNL     1      -1.179 -16.820  -7.290  1.00  0.00     0.144 C 
ATOM     17  H3  UNL     1       0.037 -17.701  -6.044  1.00  0.00     0.186 HD
BRANCH  16  18
HETATM   18  C9  UNL     1      -2.418 -16.585  -7.971  1.00  0.00     0.093 A 
HETATM   19  C10 UNL     1      -2.838 -15.535  -8.737  1.00  0.00     0.042 A 
HETATM   20  C11 UNL     1      -4.148 -15.790  -9.179  1.00  0.00     0.048 A 
HETATM   21  C12 UNL     1      -4.445 -17.016  -8.635  1.00  0.00     0.122 A 
HETATM   22 BR1  UNL     1      -6.107 -17.943  -8.864  1.00  0.00    -0.023 Br
HETATM   23  O4  UNL     1      -3.429 -17.452  -7.942  1.00  0.00    -0.302 OA
ENDBRANCH  16  18
ENDBRANCH   3  15
TORSDOF 6
ENDMDL
MODEL 2
REMARK VINA RESULT: -6.939631938      2.031      5.495
REMARK  6 active torsions:
REMARK  status: ('A' for Active; 'I' for Inactive)
REMARK    1  A    between atoms: C1_2  and  C2_3 
REMARK       I    between atoms: C1_2  and  N2_13 
REMARK    2  A    between atoms: C2_3  and  O2_4 
REMARK    3  A    between atoms: O2_4  and  C3_5 
REMARK    4  A    between atoms: C3_5  and  C4_7 
REMARK    5  A    between atoms: N2_13  and  N3_15 
REMARK    6  A    between atoms: C8_17  and  C9_18 
ROOT
HETATM    1  O1  UNL     1      -0.934 -19.892  -4.907  1.00  0.00    -0.269 OA
HETATM    2  C1  UNL     1      -2.047 -19.437  -4.543  1.00  0.00     0.260 C 
HETATM    3  N2  UNL     1      -3.180 -20.313  -4.471  1.00  0.00    -0.269 N 
ATOM      4  H2  UNL     1      -4.077 -19.928  -4.175  1.00  0.00     0.190 HD
ENDROOT
BRANCH   2   5
HETATM    5  C2  UNL     1      -2.146 -18.008  -4.203  1.00  0.00     0.283 C 
BRANCH   5   6
HETATM    6  O2  UNL     1      -2.882 -17.315  -5.190  1.00  0.00    -0.307 OA
BRANCH   6   7
HETATM    7  C3  UNL     1      -2.329 -16.987  -6.416  1.00  0.00     0.310 C 
HETATM    8  O3  UNL     1      -1.082 -16.993  -6.567  1.00  0.00    -0.258 OA
BRANCH   7   9
HETATM    9  C4  UNL     1      -3.179 -16.623  -7.565  1.00  0.00     0.108 A 
HETATM   10  C5  UNL     1      -4.446 -17.082  -7.850  1.00  0.00     0.037 A 
HETATM   11  C6  UNL     1      -4.896 -16.500  -9.013  1.00  0.00     0.019 A 
HETATM   12  C7  UNL     1      -3.879 -15.677  -9.432  1.00  0.00     0.088 A 
HETATM   13  N1  UNL     1      -2.868 -15.770  -8.550  1.00  0.00    -0.361 N 
ATOM     14  H1  UNL     1      -1.987 -15.261  -8.620  1.00  0.00     0.165 HD
ENDBRANCH   7   9
ENDBRANCH   6   7
ENDBRANCH   5   6
ENDBRANCH   2   5
BRANCH   3  15
HETATM   15  N3  UNL     1      -3.110 -21.650  -4.783  1.00  0.00    -0.307 N 
HETATM   16  C8  UNL     1      -3.598 -22.183  -5.814  1.00  0.00     0.144 C 
ATOM     17  H3  UNL     1      -2.623 -22.259  -4.125  1.00  0.00     0.186 HD
BRANCH  16  18
HETATM   18  C9  UNL     1      -4.323 -21.564  -6.885  1.00  0.00     0.093 A 
HETATM   19  C10 UNL     1      -4.098 -21.549  -8.232  1.00  0.00     0.042 A 
HETATM   20  C11 UNL     1      -5.108 -20.795  -8.853  1.00  0.00     0.048 A 
HETATM   21  C12 UNL     1      -5.904 -20.389  -7.810  1.00  0.00     0.122 A 
HETATM   22 BR1  UNL     1      -7.478 -19.310  -7.986  1.00  0.00    -0.023 Br
HETATM   23  O4  UNL     1      -5.427 -20.847  -6.684  1.00  0.00    -0.302 OA
ENDBRANCH  16  18
ENDBRANCH   3  15
TORSDOF 6
ENDMDL
MODEL 3
REMARK VINA RESULT: -6.919827508      1.483      2.055
REMARK  6 active torsions:
REMARK  status: ('A' for Active; 'I' for Inactive)
REMARK    1  A    between atoms: C1_2  and  C2_3 
REMARK       I    between atoms: C1_2  and  N2_13 
REMARK    2  A    between atoms: C2_3  and  O2_4 
REMARK    3  A    between atoms: O2_4  and  C3_5 
REMARK    4  A    between atoms: C3_5  and  C4_7 
REMARK    5  A    between atoms: N2_13  and  N3_15 
REMARK    6  A    between atoms: C8_17  and  C9_18 
ROOT
HETATM    1  O1  UNL     1      -0.416 -17.641  -6.027  1.00  0.00    -0.269 OA
HETATM    2  C1  UNL     1      -1.630 -17.642  -5.707  1.00  0.00     0.260 C 
HETATM    3  N2  UNL     1      -2.545 -16.780  -6.398  1.00  0.00    -0.269 N 
ATOM      4  H2  UNL     1      -3.527 -16.792  -6.125  1.00  0.00     0.190 HD
ENDROOT
BRANCH   2   5
HETATM    5  C2  UNL     1      -2.072 -18.538  -4.625  1.00  0.00     0.283 C 
BRANCH   5   6
HETATM    6  O2  UNL     1      -1.874 -19.888  -4.991  1.00  0.00    -0.307 OA
BRANCH   6   7
HETATM    7  C3  UNL     1      -2.783 -20.876  -4.654  1.00  0.00     0.310 C 
HETATM    8  O3  UNL     1      -3.097 -21.062  -3.452  1.00  0.00    -0.258 OA
BRANCH   7   9
HETATM    9  C4  UNL     1      -3.402 -21.730  -5.686  1.00  0.00     0.108 A 
HETATM   10  C5  UNL     1      -4.224 -21.336  -6.718  1.00  0.00     0.037 A 
HETATM   11  C6  UNL     1      -4.590 -22.435  -7.461  1.00  0.00     0.019 A 
HETATM   12  C7  UNL     1      -3.973 -23.507  -6.862  1.00  0.00     0.088 A 
HETATM   13  N1  UNL     1      -3.271 -23.058  -5.807  1.00  0.00    -0.361 N 
ATOM     14  H1  UNL     1      -2.716 -23.646  -5.185  1.00  0.00     0.165 HD
ENDBRANCH   7   9
ENDBRANCH   6   7
ENDBRANCH   5   6
ENDBRANCH   2   5
BRANCH   3  15
HETATM   15  N3  UNL     1      -2.154 -15.937  -7.410  1.00  0.00    -0.307 N 
HETATM   16  C8  UNL     1      -2.770 -15.770  -8.496  1.00  0.00     0.144 C 
ATOM     17  H3  UNL     1      -1.296 -15.403  -7.271  1.00  0.00     0.186 HD
BRANCH  16  18
HETATM   18  C9  UNL     1      -3.984 -16.389  -8.942  1.00  0.00     0.093 A 
HETATM   19  C10 UNL     1      -4.632 -16.334 -10.143  1.00  0.00     0.042 A 
HETATM   20  C11 UNL     1      -5.792 -17.124 -10.070  1.00  0.00     0.048 A 
HETATM   21  C12 UNL     1      -5.771 -17.621  -8.790  1.00  0.00     0.122 A 
HETATM   22 BR1  UNL     1      -7.096 -18.787  -8.044  1.00  0.00    -0.023 Br
HETATM   23  O4  UNL     1      -4.716 -17.180  -8.160  1.00  0.00    -0.302 OA
ENDBRANCH  16  18
ENDBRANCH   3  15
TORSDOF 6
ENDMDL
MODEL 4
REMARK VINA RESULT: -6.917896289      2.021      5.373
REMARK  6 active torsions:
REMARK  status: ('A' for Active; 'I' for Inactive)
REMARK    1  A    between atoms: C1_2  and  C2_3 
REMARK       I    between atoms: C1_2  and  N2_13 
REMARK    2  A    between atoms: C2_3  and  O2_4 
REMARK    3  A    between atoms: O2_4  and  C3_5 
REMARK    4  A    between atoms: C3_5  and  C4_7 
REMARK    5  A    between atoms: N2_13  and  N3_15 
REMARK    6  A    between atoms: C8_17  and  C9_18 
ROOT
HETATM    1  O1  UNL     1      -3.208 -22.757  -5.957  1.00  0.00    -0.269 OA
HETATM    2  C1  UNL     1      -3.995 -21.872  -5.537  1.00  0.00     0.260 C 
HETATM    3  N2  UNL     1      -5.342 -21.833  -6.027  1.00  0.00    -0.269 N 
ATOM      4  H2  UNL     1      -5.968 -21.108  -5.676  1.00  0.00     0.190 HD
ENDROOT
BRANCH   2   5
HETATM    5  C2  UNL     1      -3.498 -20.900  -4.549  1.00  0.00     0.283 C 
BRANCH   5   6
HETATM    6  O2  UNL     1      -2.108 -20.703  -4.706  1.00  0.00    -0.307 OA
BRANCH   6   7
HETATM    7  C3  UNL     1      -1.526 -19.457  -4.552  1.00  0.00     0.310 C 
HETATM    8  O3  UNL     1      -1.101 -19.094  -3.427  1.00  0.00    -0.258 OA
BRANCH   7   9
HETATM    9  C4  UNL     1      -1.391 -18.530  -5.692  1.00  0.00     0.108 A 
HETATM   10  C5  UNL     1      -2.224 -18.415  -6.782  1.00  0.00     0.037 A 
HETATM   11  C6  UNL     1      -1.750 -17.433  -7.622  1.00  0.00     0.019 A 
HETATM   12  C7  UNL     1      -0.613 -16.950  -7.021  1.00  0.00     0.088 A 
HETATM   13  N1  UNL     1      -0.423 -17.622  -5.872  1.00  0.00    -0.361 N 
ATOM     14  H1  UNL     1       0.351 -17.462  -5.227  1.00  0.00     0.165 HD
ENDBRANCH   7   9
ENDBRANCH   6   7
ENDBRANCH   5   6
ENDBRANCH   2   5
BRANCH   3  15
HETATM   15  N3  UNL     1      -5.827 -22.731  -6.948  1.00  0.00    -0.307 N 
HETATM   16  C8  UNL     1      -6.060 -22.477  -8.159  1.00  0.00     0.144 C 
ATOM     17  H3  UNL     1      -6.012 -23.681  -6.624  1.00  0.00     0.186 HD
BRANCH  16  18
HETATM   18  C9  UNL     1      -5.891 -21.240  -8.863  1.00  0.00     0.093 A 
HETATM   19  C10 UNL     1      -5.833 -20.968 -10.201  1.00  0.00     0.042 A 
HETATM   20  C11 UNL     1      -5.655 -19.584 -10.375  1.00  0.00     0.048 A 
HETATM   21  C12 UNL     1      -5.615 -19.094  -9.093  1.00  0.00     0.122 A 
HETATM   22 BR1  UNL     1      -5.389 -17.247  -8.632  1.00  0.00    -0.023 Br
HETATM   23  O4  UNL     1      -5.753 -20.071  -8.240  1.00  0.00    -0.302 OA
ENDBRANCH  16  18
ENDBRANCH   3  15
TORSDOF 6
ENDMDL
MODEL 5
REMARK VINA RESULT: -6.914157899      1.435      1.759
REMARK  6 active torsions:
REMARK  status: ('A' for Active; 'I' for Inactive)
REMARK    1  A    between atoms: C1_2  and  C2_3 
REMARK       I    between atoms: C1_2  and  N2_13 
REMARK    2  A    between atoms: C2_3  and  O2_4 
REMARK    3  A    between atoms: O2_4  and  C3_5 
REMARK    4  A    between atoms: C3_5  and  C4_7 
REMARK    5  A    between atoms: N2_13  and  N3_15 
REMARK    6  A    between atoms: C8_17  and  C9_18 
ROOT
HETATM    1  O1  UNL     1      -0.426 -19.238  -4.161  1.00  0.00    -0.269 OA
HETATM    2  C1  UNL     1      -1.439 -19.451  -4.871  1.00  0.00     0.260 C 
HETATM    3  N2  UNL     1      -1.692 -18.619  -6.012  1.00  0.00    -0.269 N 
ATOM      4  H2  UNL     1      -2.519 -18.806  -6.578  1.00  0.00     0.190 HD
ENDROOT
BRANCH   2   5
HETATM    5  C2  UNL     1      -2.338 -20.557  -4.501  1.00  0.00     0.283 C 
BRANCH   5   6
HETATM    6  O2  UNL     1      -3.436 -20.618  -5.387  1.00  0.00    -0.307 OA
BRANCH   6   7
HETATM    7  C3  UNL     1      -3.783 -21.789  -6.039  1.00  0.00     0.310 C 
HETATM    8  O3  UNL     1      -3.316 -22.889  -5.651  1.00  0.00    -0.258 OA
BRANCH   7   9
HETATM    9  C4  UNL     1      -4.701 -21.778  -7.194  1.00  0.00     0.108 A 
HETATM   10  C5  UNL     1      -4.390 -21.517  -8.509  1.00  0.00     0.037 A 
HETATM   11  C6  UNL     1      -5.528 -21.606  -9.278  1.00  0.00     0.019 A 
HETATM   12  C7  UNL     1      -6.539 -21.928  -8.405  1.00  0.00     0.088 A 
HETATM   13  N1  UNL     1      -6.017 -22.025  -7.170  1.00  0.00    -0.361 N 
ATOM     14  H1  UNL     1      -6.550 -22.254  -6.330  1.00  0.00     0.165 HD
ENDBRANCH   7   9
ENDBRANCH   6   7
ENDBRANCH   5   6
ENDBRANCH   2   5
BRANCH   3  15
HETATM   15  N3  UNL     1      -0.866 -17.583  -6.376  1.00  0.00    -0.307 N 
HETATM   16  C8  UNL     1      -1.165 -16.664  -7.184  1.00  0.00     0.144 C 
ATOM     17  H3  UNL     1       0.065 -17.556  -5.959  1.00  0.00     0.186 HD
BRANCH  16  18
HETATM   18  C9  UNL     1      -2.389 -16.467  -7.903  1.00  0.00     0.093 A 
HETATM   19  C10 UNL     1      -2.795 -15.453  -8.725  1.00  0.00     0.042 A 
HETATM   20  C11 UNL     1      -4.092 -15.735  -9.186  1.00  0.00     0.048 A 
HETATM   21  C12 UNL     1      -4.397 -16.937  -8.595  1.00  0.00     0.122 A 
HETATM   22 BR1  UNL     1      -6.050 -17.882  -8.821  1.00  0.00    -0.023 Br
HETATM   23  O4  UNL     1      -3.396 -17.337  -7.860  1.00  0.00    -0.302 OA
ENDBRANCH  16  18
ENDBRANCH   3  15
TORSDOF 6
ENDMDL
