MODEL 1
REMARK VINA RESULT: -7.884351250      0.000      0.000
REMARK  6 active torsions:
REMARK  status: ('A' for Active; 'I' for Inactive)
REMARK    1  A    between atoms: N1_2  and  C2_3 
REMARK       I    between atoms: N1_2  and  C5_10 
REMARK    2  A    between atoms: C2_3  and  C3_4 
REMARK    3  A    between atoms: C3_4  and  N2_5 
REMARK    4  A    between atoms: C5_10  and  C6_12 
REMARK    5  A    between atoms: C9_16  and  C14_22 
REMARK    6  A    between atoms: C11_19  and  C12_20 
ROOT
HETATM    1  C6  UNL     1      -4.136   1.845  14.258  1.00  0.00     0.092 C 
HETATM    2  C7  UNL     1      -3.965   3.099  13.424  1.00  0.00     0.045 C 
HETATM    3  C8  UNL     1      -3.402   4.292  14.163  1.00  0.00     0.095 C 
HETATM    4 BR1  UNL     1      -2.605   5.420  12.772  1.00  0.00    -0.088 Br
HETATM    5  C9  UNL     1      -4.601   4.965  14.664  1.00  0.00     0.145 C 
HETATM    6  O2  UNL     1      -5.649   4.669  13.818  1.00  0.00    -0.378 OA
HETATM    7  C10 UNL     1      -5.432   3.343  13.525  1.00  0.00     0.133 C 
HETATM    8  C11 UNL     1      -5.489   2.423  14.662  1.00  0.00     0.033 C 
ENDROOT
BRANCH   1   9
HETATM    9  C5  UNL     1      -4.191   0.609  13.444  1.00  0.00     0.224 C 
HETATM   10  N1  UNL     1      -3.703   0.457  12.137  1.00  0.00    -0.355 N 
HETATM   11  C1  UNL     1      -3.851  -0.835  11.484  1.00  0.00     0.152 C 
HETATM   12  O1  UNL     1      -4.737  -0.400  13.997  1.00  0.00    -0.273 OA
BRANCH  10  13
HETATM   13  C2  UNL     1      -3.054   1.505  11.395  1.00  0.00     0.145 C 
BRANCH  13  14
HETATM   14  C3  UNL     1      -1.632   1.200  11.017  1.00  0.00     0.141 C 
BRANCH  14  15
HETATM   15  N2  UNL     1      -0.830   2.394  11.210  1.00  0.00    -0.365 N 
HETATM   16  C4  UNL     1      -0.603   3.246  10.287  1.00  0.00     0.197 C 
HETATM   17  N3  UNL     1       0.209   4.376  10.635  1.00  0.00    -0.067 NA
HETATM   18  N4  UNL     1      -1.078   3.170   8.967  1.00  0.00    -0.067 NA
ATOM     19  H2  UNL     1      -0.426   2.561  12.132  1.00  0.00     0.161 HD
ENDBRANCH  14  15
ENDBRANCH  13  14
ENDBRANCH  10  13
ENDBRANCH   1   9
BRANCH   8  20
HETATM   20  C12 UNL     1      -5.639   2.906  16.017  1.00  0.00    -0.001 C 
HETATM   21  C13 UNL     1      -7.028   3.067  16.578  1.00  0.00     0.018 C 
HETATM   22  C14 UNL     1      -6.852   1.683  16.977  1.00  0.00    -0.008 A 
HETATM   23  C15 UNL     1      -6.103   1.072  17.989  1.00  0.00     0.018 A 
HETATM   24  C16 UNL     1      -5.383   2.009  17.164  1.00  0.00     0.002 A 
ENDBRANCH   8  20
TORSDOF 6
ENDMDL
MODEL 2
REMARK VINA RESULT: -7.806059858      3.171      6.179
REMARK  6 active torsions:
REMARK  status: ('A' for Active; 'I' for Inactive)
REMARK    1  A    between atoms: N1_2  and  C2_3 
REMARK       I    between atoms: N1_2  and  C5_10 
REMARK    2  A    between atoms: C2_3  and  C3_4 
REMARK    3  A    between atoms: C3_4  and  N2_5 
REMARK    4  A    between atoms: C5_10  and  C6_12 
REMARK    5  A    between atoms: C9_16  and  C14_22 
REMARK    6  A    between atoms: C11_19  and  C12_20 
ROOT
HETATM    1  C6  UNL     1      -2.601   4.512  11.348  1.00  0.00     0.092 C 
HETATM    2  C7  UNL     1      -1.411   4.994  10.542  1.00  0.00     0.045 C 
HETATM    3  C8  UNL     1      -1.456   4.666   9.068  1.00  0.00     0.095 C 
HETATM    4 BR1  UNL     1      -0.291   5.994   8.217  1.00  0.00    -0.088 Br
HETATM    5  C9  UNL     1      -0.791   3.365   8.998  1.00  0.00     0.145 C 
HETATM    6  O2  UNL     1       0.090   3.273  10.054  1.00  0.00    -0.378 OA
HETATM    7  C10 UNL     1      -0.611   3.857  11.082  1.00  0.00     0.133 C 
HETATM    8  C11 UNL     1      -1.854   3.187  11.466  1.00  0.00     0.033 C 
ENDROOT
BRANCH   1   9
HETATM    9  C5  UNL     1      -2.782   5.253  12.617  1.00  0.00     0.224 C 
HETATM   10  N1  UNL     1      -3.705   4.948  13.629  1.00  0.00    -0.355 N 
HETATM   11  C1  UNL     1      -3.749   5.795  14.812  1.00  0.00     0.152 C 
HETATM   12  O1  UNL     1      -2.020   6.259  12.791  1.00  0.00    -0.273 OA
BRANCH  10  13
HETATM   13  C2  UNL     1      -4.619   3.837  13.575  1.00  0.00     0.145 C 
BRANCH  13  14
HETATM   14  C3  UNL     1      -5.143   3.408  14.917  1.00  0.00     0.141 C 
BRANCH  14  15
HETATM   15  N2  UNL     1      -5.309   1.966  14.915  1.00  0.00    -0.365 N 
HETATM   16  C4  UNL     1      -4.511   1.165  15.507  1.00  0.00     0.197 C 
HETATM   17  N3  UNL     1      -4.811  -0.235  15.412  1.00  0.00    -0.067 NA
HETATM   18  N4  UNL     1      -3.370   1.536  16.238  1.00  0.00    -0.067 NA
ATOM     19  H2  UNL     1      -6.105   1.572  14.413  1.00  0.00     0.161 HD
ENDBRANCH  14  15
ENDBRANCH  13  14
ENDBRANCH  10  13
ENDBRANCH   1   9
BRANCH   8  20
HETATM   20  C12 UNL     1      -2.363   2.058  10.720  1.00  0.00    -0.001 C 
HETATM   21  C13 UNL     1      -2.014   0.667  11.185  1.00  0.00     0.018 C 
HETATM   22  C14 UNL     1      -3.211   0.810  11.992  1.00  0.00    -0.008 A 
HETATM   23  C15 UNL     1      -4.576   0.775  11.684  1.00  0.00     0.018 A 
HETATM   24  C16 UNL     1      -3.776   1.644  10.858  1.00  0.00     0.002 A 
ENDBRANCH   8  20
TORSDOF 6
ENDMDL
MODEL 3
REMARK VINA RESULT: -7.642369620      1.961      2.128
REMARK  6 active torsions:
REMARK  status: ('A' for Active; 'I' for Inactive)
REMARK    1  A    between atoms: N1_2  and  C2_3 
REMARK       I    between atoms: N1_2  and  C5_10 
REMARK    2  A    between atoms: C2_3  and  C3_4 
REMARK    3  A    between atoms: C3_4  and  N2_5 
REMARK    4  A    between atoms: C5_10  and  C6_12 
REMARK    5  A    between atoms: C9_16  and  C14_22 
REMARK    6  A    between atoms: C11_19  and  C12_20 
ROOT
HETATM    1  C6  UNL     1      -4.216   2.387  14.247  1.00  0.00     0.092 C 
HETATM    2  C7  UNL     1      -4.289   3.799  13.699  1.00  0.00     0.045 C 
HETATM    3  C8  UNL     1      -3.965   4.891  14.691  1.00  0.00     0.095 C 
HETATM    4 BR1  UNL     1      -3.400   6.418  13.598  1.00  0.00    -0.088 Br
HETATM    5  C9  UNL     1      -5.269   5.206  15.275  1.00  0.00     0.145 C 
HETATM    6  O2  UNL     1      -6.242   4.905  14.346  1.00  0.00    -0.378 OA
HETATM    7  C10 UNL     1      -5.777   3.736  13.791  1.00  0.00     0.133 C 
HETATM    8  C11 UNL     1      -5.654   2.602  14.709  1.00  0.00     0.033 C 
ENDROOT
BRANCH   1   9
HETATM    9  C5  UNL     1      -4.036   1.364  13.191  1.00  0.00     0.224 C 
HETATM   10  N1  UNL     1      -3.301   1.518  12.006  1.00  0.00    -0.355 N 
HETATM   11  C1  UNL     1      -3.237   0.403  11.074  1.00  0.00     0.152 C 
HETATM   12  O1  UNL     1      -4.609   0.244  13.395  1.00  0.00    -0.273 OA
BRANCH  10  13
HETATM   13  C2  UNL     1      -2.593   2.720  11.650  1.00  0.00     0.145 C 
BRANCH  13  14
HETATM   14  C3  UNL     1      -2.932   3.251  10.285  1.00  0.00     0.141 C 
BRANCH  14  15
HETATM   15  N2  UNL     1      -4.214   3.928  10.352  1.00  0.00    -0.365 N 
HETATM   16  C4  UNL     1      -4.357   5.183  10.170  1.00  0.00     0.197 C 
HETATM   17  N3  UNL     1      -5.691   5.703  10.269  1.00  0.00    -0.067 NA
HETATM   18  N4  UNL     1      -3.325   6.092   9.884  1.00  0.00    -0.067 NA
ATOM     19  H2  UNL     1      -5.044   3.372  10.555  1.00  0.00     0.161 HD
ENDBRANCH  14  15
ENDBRANCH  13  14
ENDBRANCH  10  13
ENDBRANCH   1   9
BRANCH   8  20
HETATM   20  C12 UNL     1      -5.891   2.751  16.128  1.00  0.00    -0.001 C 
HETATM   21  C13 UNL     1      -7.279   2.500  16.659  1.00  0.00     0.018 C 
HETATM   22  C14 UNL     1      -6.815   1.131  16.771  1.00  0.00    -0.008 A 
HETATM   23  C15 UNL     1      -5.946   0.490  17.663  1.00  0.00     0.018 A 
HETATM   24  C16 UNL     1      -5.445   1.706  17.075  1.00  0.00     0.002 A 
ENDBRANCH   8  20
TORSDOF 6
ENDMDL
MODEL 4
REMARK VINA RESULT: -7.595516065      3.027      5.523
REMARK  6 active torsions:
REMARK  status: ('A' for Active; 'I' for Inactive)
REMARK    1  A    between atoms: N1_2  and  C2_3 
REMARK       I    between atoms: N1_2  and  C5_10 
REMARK    2  A    between atoms: C2_3  and  C3_4 
REMARK    3  A    between atoms: C3_4  and  N2_5 
REMARK    4  A    between atoms: C5_10  and  C6_12 
REMARK    5  A    between atoms: C9_16  and  C14_22 
REMARK    6  A    between atoms: C11_19  and  C12_20 
ROOT
HETATM    1  C6  UNL     1      -2.209   3.057  11.963  1.00  0.00     0.092 C 
HETATM    2  C7  UNL     1      -1.230   3.419  10.865  1.00  0.00     0.045 C 
HETATM    3  C8  UNL     1      -0.196   4.455  11.239  1.00  0.00     0.095 C 
HETATM    4 BR1  UNL     1       1.294   4.155  10.001  1.00  0.00    -0.088 Br
HETATM    5  C9  UNL     1      -0.844   5.716  10.876  1.00  0.00     0.145 C 
HETATM    6  O2  UNL     1      -1.738   5.464   9.857  1.00  0.00    -0.378 OA
HETATM    7  C10 UNL     1      -2.285   4.258  10.228  1.00  0.00     0.133 C 
HETATM    8  C11 UNL     1      -3.023   4.258  11.492  1.00  0.00     0.033 C 
ENDROOT
BRANCH   1   9
HETATM    9  C5  UNL     1      -2.850   1.737  11.759  1.00  0.00     0.224 C 
HETATM   10  N1  UNL     1      -3.831   1.158  12.578  1.00  0.00    -0.355 N 
HETATM   11  C1  UNL     1      -4.345  -0.157  12.227  1.00  0.00     0.152 C 
HETATM   12  O1  UNL     1      -2.462   1.079  10.739  1.00  0.00    -0.273 OA
BRANCH  10  13
HETATM   13  C2  UNL     1      -4.371   1.789  13.754  1.00  0.00     0.145 C 
BRANCH  13  14
HETATM   14  C3  UNL     1      -4.424   0.896  14.961  1.00  0.00     0.141 C 
BRANCH  14  15
HETATM   15  N2  UNL     1      -4.984   1.643  16.072  1.00  0.00    -0.365 N 
HETATM   16  C4  UNL     1      -5.663   1.108  17.010  1.00  0.00     0.197 C 
HETATM   17  N3  UNL     1      -6.149   1.982  18.038  1.00  0.00    -0.067 NA
HETATM   18  N4  UNL     1      -5.974  -0.258  17.119  1.00  0.00    -0.067 NA
ATOM     19  H2  UNL     1      -4.827   2.651  16.104  1.00  0.00     0.161 HD
ENDBRANCH  14  15
ENDBRANCH  13  14
ENDBRANCH  10  13
ENDBRANCH   1   9
BRANCH   8  20
HETATM   20  C12 UNL     1      -3.058   5.425  12.346  1.00  0.00    -0.001 C 
HETATM   21  C13 UNL     1      -4.221   6.376  12.223  1.00  0.00     0.018 C 
HETATM   22  C14 UNL     1      -4.830   5.504  13.210  1.00  0.00    -0.008 A 
HETATM   23  C15 UNL     1      -4.624   5.331  14.584  1.00  0.00     0.018 A 
HETATM   24  C16 UNL     1      -3.435   5.300  13.770  1.00  0.00     0.002 A 
ENDBRANCH   8  20
TORSDOF 6
ENDMDL
MODEL 5
REMARK VINA RESULT: -7.551098359      3.115      5.778
REMARK  6 active torsions:
REMARK  status: ('A' for Active; 'I' for Inactive)
REMARK    1  A    between atoms: N1_2  and  C2_3 
REMARK       I    between atoms: N1_2  and  C5_10 
REMARK    2  A    between atoms: C2_3  and  C3_4 
REMARK    3  A    between atoms: C3_4  and  N2_5 
REMARK    4  A    between atoms: C5_10  and  C6_12 
REMARK    5  A    between atoms: C9_16  and  C14_22 
REMARK    6  A    between atoms: C11_19  and  C12_20 
ROOT
HETATM    1  C6  UNL     1      -1.605   3.515  11.737  1.00  0.00     0.092 C 
HETATM    2  C7  UNL     1      -0.618   3.760  10.613  1.00  0.00     0.045 C 
HETATM    3  C8  UNL     1       0.650   4.477  11.015  1.00  0.00     0.095 C 
HETATM    4 BR1  UNL     1       1.968   3.979   9.651  1.00  0.00    -0.088 Br
HETATM    5  C9  UNL     1       0.307   5.887  10.825  1.00  0.00     0.145 C 
HETATM    6  O2  UNL     1      -0.666   5.968   9.851  1.00  0.00    -0.378 OA
HETATM    7  C10 UNL     1      -1.469   4.890  10.139  1.00  0.00     0.133 C 
HETATM    8  C11 UNL     1      -2.128   4.919  11.446  1.00  0.00     0.033 C 
ENDROOT
BRANCH   1   9
HETATM    9  C5  UNL     1      -2.552   2.414  11.449  1.00  0.00     0.224 C 
HETATM   10  N1  UNL     1      -3.567   1.951  12.301  1.00  0.00    -0.355 N 
HETATM   11  C1  UNL     1      -4.403   0.848  11.854  1.00  0.00     0.152 C 
HETATM   12  O1  UNL     1      -2.419   1.844  10.317  1.00  0.00    -0.273 OA
BRANCH  10  13
HETATM   13  C2  UNL     1      -3.841   2.506  13.600  1.00  0.00     0.145 C 
BRANCH  13  14
HETATM   14  C3  UNL     1      -5.264   2.336  14.053  1.00  0.00     0.141 C 
BRANCH  14  15
HETATM   15  N2  UNL     1      -5.272   2.067  15.480  1.00  0.00    -0.365 N 
HETATM   16  C4  UNL     1      -5.077   0.909  15.979  1.00  0.00     0.197 C 
HETATM   17  N3  UNL     1      -5.116   0.806  17.409  1.00  0.00    -0.067 NA
HETATM   18  N4  UNL     1      -4.831  -0.266  15.249  1.00  0.00    -0.067 NA
ATOM     19  H2  UNL     1      -5.442   2.845  16.117  1.00  0.00     0.161 HD
ENDBRANCH  14  15
ENDBRANCH  13  14
ENDBRANCH  10  13
ENDBRANCH   1   9
BRANCH   8  20
HETATM   20  C12 UNL     1      -1.843   5.958  12.411  1.00  0.00    -0.001 C 
HETATM   21  C13 UNL     1      -2.686   7.207  12.399  1.00  0.00     0.018 C 
HETATM   22  C14 UNL     1      -3.532   6.450  13.303  1.00  0.00    -0.008 A 
HETATM   23  C15 UNL     1      -3.405   6.092  14.650  1.00  0.00     0.018 A 
HETATM   24  C16 UNL     1      -2.262   5.805  13.821  1.00  0.00     0.002 A 
ENDBRANCH   8  20
TORSDOF 6
ENDMDL
