MODEL 1
REMARK VINA RESULT: -7.050369753      0.000      0.000
REMARK  4 active torsions:
REMARK  status: ('A' for Active; 'I' for Inactive)
REMARK       I    between atoms: N1_2  and  C2_4 
REMARK    1  A    between atoms: C2_4  and  C3_6 
REMARK       I    between atoms: N3_15  and  C8_16 
REMARK    2  A    between atoms: C12_21  and  C13_22 
REMARK    3  A    between atoms: C13_22  and  C14_23 
REMARK    4  A    between atoms: C14_23  and  O4_24 
ROOT
HETATM    1  C3  UNL     1      16.185  21.908   6.105  1.00  0.00     0.132 C 
HETATM    2  C4  UNL     1      15.676  23.308   5.912  1.00  0.00     0.100 C 
HETATM    3  C5  UNL     1      14.450  23.067   5.104  1.00  0.00     0.224 C 
HETATM    4  O2  UNL     1      13.332  23.598   5.129  1.00  0.00    -0.273 OA
HETATM    5  N2  UNL     1      14.821  22.021   4.216  1.00  0.00    -0.339 N 
ATOM      6  H2  UNL     1      14.392  21.837   3.309  1.00  0.00     0.164 HD
HETATM    7  C6  UNL     1      15.903  21.256   4.799  1.00  0.00     0.120 C 
HETATM    8 BR1  UNL     1      15.319  19.439   4.893  1.00  0.00    -0.059 Br
HETATM    9  C7  UNL     1      17.158  21.319   3.958  1.00  0.00     0.170 C 
HETATM   10  N3  UNL     1      17.494  22.721   3.646  1.00  0.00    -0.344 N 
HETATM   11  C8  UNL     1      17.453  22.994   2.278  1.00  0.00     0.216 C 
HETATM   12  C9  UNL     1      17.110  21.970   1.260  1.00  0.00     0.117 C 
HETATM   13  O3  UNL     1      17.713  24.147   1.851  1.00  0.00    -0.274 OA
HETATM   14  C10 UNL     1      17.824  23.703   4.624  1.00  0.00     0.088 C 
HETATM   15  C11 UNL     1      18.715  24.819   4.171  1.00  0.00     0.033 C 
HETATM   16  C12 UNL     1      16.580  24.273   5.260  1.00  0.00     0.024 C 
ENDROOT
BRANCH   1  17
HETATM   17  C2  UNL     1      15.379  21.260   7.174  1.00  0.00     0.225 C 
HETATM   18  N1  UNL     1      14.242  21.944   7.683  1.00  0.00    -0.365 N 
HETATM   19  C1  UNL     1      13.439  21.318   8.742  1.00  0.00     0.149 C 
ATOM     20  H1  UNL     1      13.986  22.862   7.316  1.00  0.00     0.161 HD
HETATM   21  O1  UNL     1      15.690  20.128   7.628  1.00  0.00    -0.273 OA
ENDBRANCH   1  17
BRANCH  16  22
HETATM   22  C13 UNL     1      16.978  25.414   6.182  1.00  0.00     0.033 C 
BRANCH  22  23
HETATM   23  C14 UNL     1      16.386  25.269   7.558  1.00  0.00     0.164 C 
BRANCH  23  24
HETATM   24  O4  UNL     1      17.352  25.515   8.557  1.00  0.00    -0.401 OA
ATOM     25  H4  UNL     1      17.680  24.703   8.924  1.00  0.00     0.209 HD
ENDBRANCH  23  24
ENDBRANCH  22  23
ENDBRANCH  16  22
TORSDOF 4
ENDMDL
MODEL 2
REMARK VINA RESULT: -6.608572628      2.530      4.320
REMARK  4 active torsions:
REMARK  status: ('A' for Active; 'I' for Inactive)
REMARK       I    between atoms: N1_2  and  C2_4 
REMARK    1  A    between atoms: C2_4  and  C3_6 
REMARK       I    between atoms: N3_15  and  C8_16 
REMARK    2  A    between atoms: C12_21  and  C13_22 
REMARK    3  A    between atoms: C13_22  and  C14_23 
REMARK    4  A    between atoms: C14_23  and  O4_24 
ROOT
HETATM    1  C3  UNL     1      17.809  22.098   4.910  1.00  0.00     0.132 C 
HETATM    2  C4  UNL     1      16.313  21.953   4.934  1.00  0.00     0.100 C 
HETATM    3  C5  UNL     1      15.978  22.122   3.494  1.00  0.00     0.224 C 
HETATM    4  O2  UNL     1      15.146  21.557   2.773  1.00  0.00    -0.273 OA
HETATM    5  N2  UNL     1      16.863  23.142   3.050  1.00  0.00    -0.339 N 
ATOM      6  H2  UNL     1      16.698  23.760   2.256  1.00  0.00     0.164 HD
HETATM    7  C6  UNL     1      18.034  23.167   3.900  1.00  0.00     0.120 C 
HETATM    8 BR1  UNL     1      19.554  22.924   2.768  1.00  0.00    -0.059 Br
HETATM    9  C7  UNL     1      18.178  24.484   4.629  1.00  0.00     0.170 C 
HETATM   10  N3  UNL     1      16.916  24.831   5.310  1.00  0.00    -0.344 N 
HETATM   11  C8  UNL     1      16.347  26.009   4.823  1.00  0.00     0.216 C 
HETATM   12  C9  UNL     1      16.962  26.815   3.740  1.00  0.00     0.117 C 
HETATM   13  O3  UNL     1      15.267  26.438   5.300  1.00  0.00    -0.274 OA
HETATM   14  C10 UNL     1      16.327  24.057   6.350  1.00  0.00     0.088 C 
HETATM   15  C11 UNL     1      15.470  24.800   7.329  1.00  0.00     0.033 C 
HETATM   16  C12 UNL     1      15.556  22.888   5.785  1.00  0.00     0.024 C 
ENDROOT
BRANCH   1  17
HETATM   17  C2  UNL     1      18.395  20.820   4.428  1.00  0.00     0.225 C 
HETATM   18  N1  UNL     1      19.522  20.284   5.108  1.00  0.00    -0.365 N 
HETATM   19  C1  UNL     1      20.114  19.023   4.639  1.00  0.00     0.149 C 
ATOM     20  H1  UNL     1      19.916  20.770   5.914  1.00  0.00     0.161 HD
HETATM   21  O1  UNL     1      17.911  20.215   3.435  1.00  0.00    -0.273 OA
ENDBRANCH   1  17
BRANCH  16  22
HETATM   22  C13 UNL     1      14.829  22.185   6.921  1.00  0.00     0.033 C 
BRANCH  22  23
HETATM   23  C14 UNL     1      13.393  21.887   6.580  1.00  0.00     0.164 C 
BRANCH  23  24
HETATM   24  O4  UNL     1      12.914  22.765   5.585  1.00  0.00    -0.401 OA
ATOM     25  H4  UNL     1      12.856  22.330   4.742  1.00  0.00     0.209 HD
ENDBRANCH  23  24
ENDBRANCH  22  23
ENDBRANCH  16  22
TORSDOF 4
ENDMDL
MODEL 3
REMARK VINA RESULT: -6.562609472      2.359      3.649
REMARK  4 active torsions:
REMARK  status: ('A' for Active; 'I' for Inactive)
REMARK       I    between atoms: N1_2  and  C2_4 
REMARK    1  A    between atoms: C2_4  and  C3_6 
REMARK       I    between atoms: N3_15  and  C8_16 
REMARK    2  A    between atoms: C12_21  and  C13_22 
REMARK    3  A    between atoms: C13_22  and  C14_23 
REMARK    4  A    between atoms: C14_23  and  O4_24 
ROOT
HETATM    1  C3  UNL     1      16.352  22.853   5.788  1.00  0.00     0.132 C 
HETATM    2  C4  UNL     1      17.053  23.076   4.478  1.00  0.00     0.100 C 
HETATM    3  C5  UNL     1      15.911  23.059   3.525  1.00  0.00     0.224 C 
HETATM    4  O2  UNL     1      15.675  23.733   2.514  1.00  0.00    -0.273 OA
HETATM    5  N2  UNL     1      15.058  22.038   4.025  1.00  0.00    -0.339 N 
ATOM      6  H2  UNL     1      14.387  21.506   3.471  1.00  0.00     0.164 HD
HETATM    7  C6  UNL     1      15.288  21.872   5.445  1.00  0.00     0.120 C 
HETATM    8 BR1  UNL     1      13.610  22.137   6.320  1.00  0.00    -0.059 Br
HETATM    9  C7  UNL     1      15.795  20.487   5.778  1.00  0.00     0.170 C 
HETATM   10  N3  UNL     1      16.949  20.147   4.924  1.00  0.00    -0.344 N 
HETATM   11  C8  UNL     1      16.701  19.051   4.095  1.00  0.00     0.216 C 
HETATM   12  C9  UNL     1      15.412  18.318   4.090  1.00  0.00     0.117 C 
HETATM   13  O3  UNL     1      17.587  18.639   3.305  1.00  0.00    -0.274 OA
HETATM   14  C10 UNL     1      18.187  20.852   4.929  1.00  0.00     0.088 C 
HETATM   15  C11 UNL     1      19.400  20.069   4.533  1.00  0.00     0.033 C 
HETATM   16  C12 UNL     1      18.098  22.108   4.096  1.00  0.00     0.024 C 
ENDROOT
BRANCH   1  17
HETATM   17  C2  UNL     1      15.734  24.137   6.211  1.00  0.00     0.225 C 
HETATM   18  N1  UNL     1      16.198  24.761   7.401  1.00  0.00    -0.365 N 
HETATM   19  C1  UNL     1      15.593  26.028   7.833  1.00  0.00     0.149 C 
ATOM     20  H1  UNL     1      16.945  24.332   7.949  1.00  0.00     0.161 HD
HETATM   21  O1  UNL     1      14.814  24.671   5.537  1.00  0.00    -0.273 OA
ENDBRANCH   1  17
BRANCH  16  22
HETATM   22  C13 UNL     1      19.478  22.740   4.015  1.00  0.00     0.033 C 
BRANCH  22  23
HETATM   23  C14 UNL     1      19.524  24.095   4.670  1.00  0.00     0.164 C 
BRANCH  23  24
HETATM   24  O4  UNL     1      19.818  23.984   6.046  1.00  0.00    -0.401 OA
ATOM     25  H4  UNL     1      20.668  24.357   6.246  1.00  0.00     0.209 HD
ENDBRANCH  23  24
ENDBRANCH  22  23
ENDBRANCH  16  22
TORSDOF 4
ENDMDL
MODEL 4
REMARK VINA RESULT: -6.435990606      2.308      4.280
REMARK  4 active torsions:
REMARK  status: ('A' for Active; 'I' for Inactive)
REMARK       I    between atoms: N1_2  and  C2_4 
REMARK    1  A    between atoms: C2_4  and  C3_6 
REMARK       I    between atoms: N3_15  and  C8_16 
REMARK    2  A    between atoms: C12_21  and  C13_22 
REMARK    3  A    between atoms: C13_22  and  C14_23 
REMARK    4  A    between atoms: C14_23  and  O4_24 
ROOT
HETATM    1  C3  UNL     1      15.509  23.103   4.285  1.00  0.00     0.132 C 
HETATM    2  C4  UNL     1      16.273  21.847   3.974  1.00  0.00     0.100 C 
HETATM    3  C5  UNL     1      17.318  21.868   5.033  1.00  0.00     0.224 C 
HETATM    4  O2  UNL     1      17.818  20.962   5.712  1.00  0.00    -0.273 OA
HETATM    5  N2  UNL     1      17.677  23.240   5.138  1.00  0.00    -0.339 N 
ATOM      6  H2  UNL     1      18.572  23.591   5.478  1.00  0.00     0.164 HD
HETATM    7  C6  UNL     1      16.573  24.061   4.687  1.00  0.00     0.120 C 
HETATM    8 BR1  UNL     1      16.123  25.235   6.127  1.00  0.00    -0.059 Br
HETATM    9  C7  UNL     1      16.942  24.894   3.480  1.00  0.00     0.170 C 
HETATM   10  N3  UNL     1      17.541  24.041   2.436  1.00  0.00    -0.344 N 
HETATM   11  C8  UNL     1      18.864  24.384   2.153  1.00  0.00     0.216 C 
HETATM   12  C9  UNL     1      19.575  25.492   2.836  1.00  0.00     0.117 C 
HETATM   13  O3  UNL     1      19.514  23.748   1.286  1.00  0.00    -0.274 OA
HETATM   14  C10 UNL     1      16.857  22.977   1.780  1.00  0.00     0.088 C 
HETATM   15  C11 UNL     1      17.316  22.646   0.393  1.00  0.00     0.033 C 
HETATM   16  C12 UNL     1      16.861  21.728   2.628  1.00  0.00     0.024 C 
ENDROOT
BRANCH   1  17
HETATM   17  C2  UNL     1      14.614  22.832   5.440  1.00  0.00     0.225 C 
HETATM   18  N1  UNL     1      15.009  21.861   6.400  1.00  0.00    -0.365 N 
HETATM   19  C1  UNL     1      14.131  21.580   7.545  1.00  0.00     0.149 C 
ATOM     20  H1  UNL     1      15.894  21.365   6.295  1.00  0.00     0.161 HD
HETATM   21  O1  UNL     1      13.521  23.443   5.575  1.00  0.00    -0.273 OA
ENDBRANCH   1  17
BRANCH  16  22
HETATM   22  C13 UNL     1      16.253  20.589   1.825  1.00  0.00     0.033 C 
BRANCH  22  23
HETATM   23  C14 UNL     1      15.132  19.906   2.561  1.00  0.00     0.164 C 
BRANCH  23  24
HETATM   24  O4  UNL     1      13.879  20.241   2.004  1.00  0.00    -0.401 OA
ATOM     25  H4  UNL     1      13.570  21.076   2.334  1.00  0.00     0.209 HD
ENDBRANCH  23  24
ENDBRANCH  22  23
ENDBRANCH  16  22
TORSDOF 4
ENDMDL
MODEL 5
REMARK VINA RESULT: -6.385802029      2.703      4.644
REMARK  4 active torsions:
REMARK  status: ('A' for Active; 'I' for Inactive)
REMARK       I    between atoms: N1_2  and  C2_4 
REMARK    1  A    between atoms: C2_4  and  C3_6 
REMARK       I    between atoms: N3_15  and  C8_16 
REMARK    2  A    between atoms: C12_21  and  C13_22 
REMARK    3  A    between atoms: C13_22  and  C14_23 
REMARK    4  A    between atoms: C14_23  and  O4_24 
ROOT
HETATM    1  C3  UNL     1      16.117  24.991   4.728  1.00  0.00     0.132 C 
HETATM    2  C4  UNL     1      15.897  24.479   6.124  1.00  0.00     0.100 C 
HETATM    3  C5  UNL     1      17.210  24.778   6.756  1.00  0.00     0.224 C 
HETATM    4  O2  UNL     1      17.502  25.183   7.889  1.00  0.00    -0.273 OA
HETATM    5  N2  UNL     1      18.159  24.489   5.738  1.00  0.00    -0.339 N 
ATOM      6  H2  UNL     1      19.134  24.234   5.896  1.00  0.00     0.164 HD
HETATM    7  C6  UNL     1      17.527  24.616   4.443  1.00  0.00     0.120 C 
HETATM    8 BR1  UNL     1      18.536  25.899   3.449  1.00  0.00    -0.059 Br
HETATM    9  C7  UNL     1      17.524  23.308   3.683  1.00  0.00     0.170 C 
HETATM   10  N3  UNL     1      16.982  22.228   4.530  1.00  0.00    -0.344 N 
HETATM   11  C8  UNL     1      17.917  21.224   4.787  1.00  0.00     0.216 C 
HETATM   12  C9  UNL     1      19.301  21.254   4.255  1.00  0.00     0.117 C 
HETATM   13  O3  UNL     1      17.608  20.234   5.496  1.00  0.00    -0.274 OA
HETATM   14  C10 UNL     1      15.652  22.200   5.040  1.00  0.00     0.088 C 
HETATM   15  C11 UNL     1      15.072  20.845   5.309  1.00  0.00     0.033 C 
HETATM   16  C12 UNL     1      15.528  23.060   6.273  1.00  0.00     0.024 C 
ENDROOT
BRANCH   1  17
HETATM   17  C2  UNL     1      15.985  26.472   4.747  1.00  0.00     0.225 C 
HETATM   18  N1  UNL     1      16.023  27.146   5.998  1.00  0.00    -0.365 N 
HETATM   19  C1  UNL     1      15.889  28.610   6.032  1.00  0.00     0.149 C 
ATOM     20  H1  UNL     1      16.141  26.619   6.864  1.00  0.00     0.161 HD
HETATM   21  O1  UNL     1      15.840  27.127   3.682  1.00  0.00    -0.273 OA
ENDBRANCH   1  17
BRANCH  16  22
HETATM   22  C13 UNL     1      14.137  22.878   6.860  1.00  0.00     0.033 C 
BRANCH  22  23
HETATM   23  C14 UNL     1      14.144  22.903   8.365  1.00  0.00     0.164 C 
BRANCH  23  24
HETATM   24  O4  UNL     1      14.472  24.186   8.851  1.00  0.00    -0.401 OA
ATOM     25  H4  UNL     1      14.982  24.674   8.215  1.00  0.00     0.209 HD
ENDBRANCH  23  24
ENDBRANCH  22  23
ENDBRANCH  16  22
TORSDOF 4
ENDMDL
