MODEL 1
REMARK VINA RESULT: -9.981093882      0.000      0.000
REMARK  6 active torsions:
REMARK  status: ('A' for Active; 'I' for Inactive)
REMARK    1  A    between atoms: C6_9  and  N3_10 
REMARK    2  A    between atoms: N3_10  and  C7_12 
REMARK    3  A    between atoms: N5_18  and  C11_20 
REMARK    4  A    between atoms: C11_20  and  C12_21 
REMARK    5  A    between atoms: C12_21  and  C13_22 
REMARK    6  A    between atoms: C13_22  and  N6_23 
ROOT
HETATM    1  C1  UNL     1     -51.924  92.948  28.888  1.00  0.00     0.054 C 
HETATM    2  C2  UNL     1     -51.086  92.629  27.681  1.00  0.00     0.005 A 
HETATM    3  C3  UNL     1     -50.198  91.571  27.624  1.00  0.00     0.069 A 
HETATM    4  C4  UNL     1     -49.879  90.592  28.624  1.00  0.00     0.101 C 
HETATM    5  N1  UNL     1     -49.605  89.793  29.424  1.00  0.00    -0.191 NA
HETATM    6  C5  UNL     1     -49.656  91.652  26.351  1.00  0.00     0.113 A 
HETATM    7  N2  UNL     1     -50.195  92.699  25.698  1.00  0.00    -0.350 N 
ATOM      8  H2  UNL     1     -49.965  92.976  24.743  1.00  0.00     0.166 HD
HETATM    9  C6  UNL     1     -51.086  93.327  26.496  1.00  0.00     0.128 A 
ENDROOT
BRANCH   9  10
HETATM   10  N3  UNL     1     -51.884  94.460  26.239  1.00  0.00    -0.176 N 
ATOM     11  H3  UNL     1     -52.602  94.706  26.920  1.00  0.00     0.186 HD
BRANCH  10  12
HETATM   12  C7  UNL     1     -51.760  95.203  25.195  1.00  0.00     0.685 A 
HETATM   13  N4  UNL     1     -51.162  96.397  25.181  1.00  0.00    -0.190 N 
HETATM   14  C8  UNL     1     -51.055  97.136  24.059  1.00  0.00     0.070 A 
ATOM     15  H4  UNL     1     -50.774  96.763  26.050  1.00  0.00     0.184 HD
HETATM   16  C9  UNL     1     -51.569  96.669  22.874  1.00  0.00     0.028 A 
HETATM   17  C22 UNL     1     -50.419  98.480  23.826  1.00  0.00     0.090 A 
HETATM   18  C10 UNL     1     -52.194  95.433  22.853  1.00  0.00     0.130 A 
HETATM   19  C20 UNL     1     -51.330  97.695  21.817  1.00  0.00     0.139 A 
HETATM   20  N5  UNL     1     -52.661  94.911  21.841  1.00  0.00    -0.355 N 
HETATM   21  N7  UNL     1     -52.255  94.758  24.045  1.00  0.00    -0.176 N 
ATOM     22  H5  UNL     1     -53.065  94.008  22.088  1.00  0.00     0.166 HD
ATOM     23  H7  UNL     1     -52.713  93.847  24.049  1.00  0.00     0.186 HD
HETATM   24  N8  UNL     1     -50.570  98.705  22.447  1.00  0.00    -0.290 NA
HETATM   25  C21 UNL     1     -49.408  99.027  21.690  1.00  0.00     0.116 C 
BRANCH  20  26
HETATM   26  C11 UNL     1     -52.829  95.128  20.470  1.00  0.00     0.067 C 
BRANCH  26  27
HETATM   27  C12 UNL     1     -54.295  95.338  20.196  1.00  0.00     0.089 C 
BRANCH  27  28
HETATM   28  C13 UNL     1     -54.603  96.650  19.571  1.00  0.00     0.068 C 
BRANCH  28  29
HETATM   29  N6  UNL     1     -54.962  97.670  20.435  1.00  0.00    -0.373 N 
HETATM   30  C14 UNL     1     -54.571  98.984  20.409  1.00  0.00     0.063 C 
HETATM   31  C15 UNL     1     -54.191  99.573  21.770  1.00  0.00     0.045 C 
HETATM   32  C16 UNL     1     -54.865  98.848  22.896  1.00  0.00     0.011 C 
HETATM   33  C17 UNL     1     -56.213  98.311  22.474  1.00  0.00     0.000 C 
HETATM   34  C18 UNL     1     -57.173  99.417  22.107  1.00  0.00     0.011 C 
HETATM   35  C19 UNL     1     -56.005  97.325  21.382  1.00  0.00     0.131 C 
ENDBRANCH  28  29
ENDBRANCH  27  28
ENDBRANCH  26  27
ENDBRANCH  20  26
ENDBRANCH  10  12
ENDBRANCH   9  10
TORSDOF 6
ENDMDL
MODEL 2
REMARK VINA RESULT: -9.900861796      0.624      1.144
REMARK  6 active torsions:
REMARK  status: ('A' for Active; 'I' for Inactive)
REMARK    1  A    between atoms: C6_9  and  N3_10 
REMARK    2  A    between atoms: N3_10  and  C7_12 
REMARK    3  A    between atoms: N5_18  and  C11_20 
REMARK    4  A    between atoms: C11_20  and  C12_21 
REMARK    5  A    between atoms: C12_21  and  C13_22 
REMARK    6  A    between atoms: C13_22  and  N6_23 
ROOT
HETATM    1  C1  UNL     1     -51.923  92.911  28.880  1.00  0.00     0.054 C 
HETATM    2  C2  UNL     1     -51.080  92.612  27.672  1.00  0.00     0.005 A 
HETATM    3  C3  UNL     1     -50.190  91.556  27.601  1.00  0.00     0.069 A 
HETATM    4  C4  UNL     1     -49.874  90.563  28.587  1.00  0.00     0.101 C 
HETATM    5  N1  UNL     1     -49.601  89.752  29.376  1.00  0.00    -0.191 NA
HETATM    6  C5  UNL     1     -49.644  91.657  26.332  1.00  0.00     0.113 A 
HETATM    7  N2  UNL     1     -50.182  92.712  25.693  1.00  0.00    -0.350 N 
ATOM      8  H2  UNL     1     -49.950  93.004  24.743  1.00  0.00     0.166 HD
HETATM    9  C6  UNL     1     -51.077  93.328  26.497  1.00  0.00     0.128 A 
ENDROOT
BRANCH   9  10
HETATM   10  N3  UNL     1     -51.875  94.463  26.254  1.00  0.00    -0.176 N 
ATOM     11  H3  UNL     1     -52.578  94.713  26.949  1.00  0.00     0.186 HD
BRANCH  10  12
HETATM   12  C7  UNL     1     -51.770  95.204  25.207  1.00  0.00     0.685 A 
HETATM   13  N4  UNL     1     -51.213  96.418  25.189  1.00  0.00    -0.190 N 
HETATM   14  C8  UNL     1     -51.123  97.153  24.064  1.00  0.00     0.070 A 
ATOM     15  H4  UNL     1     -50.842  96.802  26.059  1.00  0.00     0.184 HD
HETATM   16  C9  UNL     1     -51.614  96.662  22.879  1.00  0.00     0.028 A 
HETATM   17  C22 UNL     1     -50.531  98.517  23.827  1.00  0.00     0.090 A 
HETATM   18  C10 UNL     1     -52.197  95.407  22.861  1.00  0.00     0.130 A 
HETATM   19  C20 UNL     1     -51.403  97.690  21.817  1.00  0.00     0.139 A 
HETATM   20  N5  UNL     1     -52.639  94.863  21.850  1.00  0.00    -0.355 N 
HETATM   21  N7  UNL     1     -52.242  94.736  24.057  1.00  0.00    -0.176 N 
ATOM     22  H5  UNL     1     -53.015  93.949  22.099  1.00  0.00     0.166 HD
ATOM     23  H7  UNL     1     -52.669  93.811  24.063  1.00  0.00     0.186 HD
HETATM   24  N8  UNL     1     -50.681  98.729  22.445  1.00  0.00    -0.290 NA
HETATM   25  C21 UNL     1     -49.526  99.085  21.694  1.00  0.00     0.116 C 
BRANCH  20  26
HETATM   26  C11 UNL     1     -52.806  95.067  20.476  1.00  0.00     0.067 C 
BRANCH  26  27
HETATM   27  C12 UNL     1     -54.252  95.398  20.215  1.00  0.00     0.089 C 
BRANCH  27  28
HETATM   28  C13 UNL     1     -54.448  96.686  19.500  1.00  0.00     0.068 C 
BRANCH  28  29
HETATM   29  N6  UNL     1     -55.006  97.715  20.238  1.00  0.00    -0.373 N 
HETATM   30  C14 UNL     1     -55.089  97.836  21.602  1.00  0.00     0.063 C 
HETATM   31  C15 UNL     1     -56.443  98.319  22.126  1.00  0.00     0.045 C 
HETATM   32  C16 UNL     1     -57.185  99.118  21.097  1.00  0.00     0.011 C 
HETATM   33  C17 UNL     1     -56.234  99.866  20.192  1.00  0.00     0.000 C 
HETATM   34  C18 UNL     1     -55.419 100.887  20.949  1.00  0.00     0.011 C 
HETATM   35  C19 UNL     1     -55.402  98.874  19.461  1.00  0.00     0.131 C 
ENDBRANCH  28  29
ENDBRANCH  27  28
ENDBRANCH  26  27
ENDBRANCH  20  26
ENDBRANCH  10  12
ENDBRANCH   9  10
TORSDOF 6
ENDMDL
MODEL 3
REMARK VINA RESULT: -9.799068357      4.370      8.028
REMARK  6 active torsions:
REMARK  status: ('A' for Active; 'I' for Inactive)
REMARK    1  A    between atoms: C6_9  and  N3_10 
REMARK    2  A    between atoms: N3_10  and  C7_12 
REMARK    3  A    between atoms: N5_18  and  C11_20 
REMARK    4  A    between atoms: C11_20  and  C12_21 
REMARK    5  A    between atoms: C12_21  and  C13_22 
REMARK    6  A    between atoms: C13_22  and  N6_23 
ROOT
HETATM    1  C1  UNL     1     -57.117 100.008  19.268  1.00  0.00     0.054 C 
HETATM    2  C2  UNL     1     -56.423 100.796  20.344  1.00  0.00     0.005 A 
HETATM    3  C3  UNL     1     -57.021 101.154  21.538  1.00  0.00     0.069 A 
HETATM    4  C4  UNL     1     -58.350 100.885  22.009  1.00  0.00     0.101 C 
HETATM    5  N1  UNL     1     -59.425 100.681  22.405  1.00  0.00    -0.191 NA
HETATM    6  C5  UNL     1     -56.035 101.853  22.215  1.00  0.00     0.113 A 
HETATM    7  N2  UNL     1     -54.921 101.903  21.461  1.00  0.00    -0.350 N 
ATOM      8  H2  UNL     1     -54.050 102.361  21.732  1.00  0.00     0.166 HD
HETATM    9  C6  UNL     1     -55.128 101.257  20.293  1.00  0.00     0.128 A 
ENDROOT
BRANCH   9  10
HETATM   10  N3  UNL     1     -54.253 101.056  19.207  1.00  0.00    -0.176 N 
ATOM     11  H3  UNL     1     -54.614 101.205  18.266  1.00  0.00     0.186 HD
BRANCH  10  12
HETATM   12  C7  UNL     1     -53.024 100.694  19.333  1.00  0.00     0.685 A 
HETATM   13  N4  UNL     1     -51.973 101.447  18.998  1.00  0.00    -0.190 N 
HETATM   14  C8  UNL     1     -50.704 101.023  19.153  1.00  0.00     0.070 A 
ATOM     15  H4  UNL     1     -52.138 102.377  18.610  1.00  0.00     0.184 HD
HETATM   16  C9  UNL     1     -50.452  99.777  19.672  1.00  0.00     0.028 A 
HETATM   17  C22 UNL     1     -49.397 101.708  18.856  1.00  0.00     0.090 A 
HETATM   18  C10 UNL     1     -51.518  98.970  20.031  1.00  0.00     0.130 A 
HETATM   19  C20 UNL     1     -48.975  99.567  19.706  1.00  0.00     0.139 A 
HETATM   20  N5  UNL     1     -51.402  97.851  20.531  1.00  0.00    -0.355 N 
HETATM   21  N7  UNL     1     -52.772  99.490  19.834  1.00  0.00    -0.176 N 
ATOM     22  H5  UNL     1     -52.330  97.465  20.703  1.00  0.00     0.166 HD
ATOM     23  H7  UNL     1     -53.569  98.909  20.092  1.00  0.00     0.186 HD
HETATM   24  N8  UNL     1     -48.417 100.793  19.280  1.00  0.00    -0.290 NA
HETATM   25  C21 UNL     1     -47.421 101.253  20.186  1.00  0.00     0.116 C 
BRANCH  20  26
HETATM   26  C11 UNL     1     -50.438  96.927  20.945  1.00  0.00     0.067 C 
BRANCH  26  27
HETATM   27  C12 UNL     1     -50.982  95.540  20.726  1.00  0.00     0.089 C 
BRANCH  27  28
HETATM   28  C13 UNL     1     -52.009  95.139  21.722  1.00  0.00     0.068 C 
BRANCH  28  29
HETATM   29  N6  UNL     1     -53.322  95.433  21.398  1.00  0.00    -0.373 N 
HETATM   30  C14 UNL     1     -53.990  95.165  20.230  1.00  0.00     0.063 C 
HETATM   31  C15 UNL     1     -54.851  96.314  19.700  1.00  0.00     0.045 C 
HETATM   32  C16 UNL     1     -55.277  97.241  20.798  1.00  0.00     0.011 C 
HETATM   33  C17 UNL     1     -55.439  96.505  22.107  1.00  0.00     0.000 C 
HETATM   34  C18 UNL     1     -56.535  95.468  22.041  1.00  0.00     0.011 C 
HETATM   35  C19 UNL     1     -54.120  95.942  22.497  1.00  0.00     0.131 C 
ENDBRANCH  28  29
ENDBRANCH  27  28
ENDBRANCH  26  27
ENDBRANCH  20  26
ENDBRANCH  10  12
ENDBRANCH   9  10
TORSDOF 6
ENDMDL
MODEL 4
REMARK VINA RESULT: -9.752229775      1.346      1.763
REMARK  6 active torsions:
REMARK  status: ('A' for Active; 'I' for Inactive)
REMARK    1  A    between atoms: C6_9  and  N3_10 
REMARK    2  A    between atoms: N3_10  and  C7_12 
REMARK    3  A    between atoms: N5_18  and  C11_20 
REMARK    4  A    between atoms: C11_20  and  C12_21 
REMARK    5  A    between atoms: C12_21  and  C13_22 
REMARK    6  A    between atoms: C13_22  and  N6_23 
ROOT
HETATM    1  C1  UNL     1     -51.931  90.642  27.005  1.00  0.00     0.054 C 
HETATM    2  C2  UNL     1     -51.997  91.979  27.690  1.00  0.00     0.005 A 
HETATM    3  C3  UNL     1     -52.474  92.157  28.975  1.00  0.00     0.069 A 
HETATM    4  C4  UNL     1     -52.986  91.188  29.901  1.00  0.00     0.101 C 
HETATM    5  N1  UNL     1     -53.409  90.417  30.663  1.00  0.00    -0.191 NA
HETATM    6  C5  UNL     1     -52.351  93.520  29.196  1.00  0.00     0.113 A 
HETATM    7  N2  UNL     1     -51.831  94.108  28.101  1.00  0.00    -0.350 N 
ATOM      8  H2  UNL     1     -51.640  95.106  28.007  1.00  0.00     0.166 HD
HETATM    9  C6  UNL     1     -51.600  93.179  27.148  1.00  0.00     0.128 A 
ENDROOT
BRANCH   9  10
HETATM   10  N3  UNL     1     -51.069  93.331  25.851  1.00  0.00    -0.176 N 
ATOM     11  H3  UNL     1     -50.456  92.599  25.496  1.00  0.00     0.186 HD
BRANCH  10  12
HETATM   12  C7  UNL     1     -51.312  94.340  25.091  1.00  0.00     0.685 A 
HETATM   13  N4  UNL     1     -51.155  95.617  25.451  1.00  0.00    -0.190 N 
HETATM   14  C8  UNL     1     -51.420  96.639  24.614  1.00  0.00     0.070 A 
ATOM     15  H4  UNL     1     -50.822  95.825  26.393  1.00  0.00     0.184 HD
HETATM   16  C9  UNL     1     -51.870  96.389  23.341  1.00  0.00     0.028 A 
HETATM   17  C22 UNL     1     -51.300  98.127  24.813  1.00  0.00     0.090 A 
HETATM   18  C10 UNL     1     -52.043  95.077  22.934  1.00  0.00     0.130 A 
HETATM   19  C20 UNL     1     -52.102  97.694  22.655  1.00  0.00     0.139 A 
HETATM   20  N5  UNL     1     -52.411  94.744  21.809  1.00  0.00    -0.355 N 
HETATM   21  N7  UNL     1     -51.747  94.107  23.857  1.00  0.00    -0.176 N 
ATOM     22  H5  UNL     1     -52.461  93.727  21.761  1.00  0.00     0.166 HD
ATOM     23  H7  UNL     1     -51.870  93.135  23.576  1.00  0.00     0.186 HD
HETATM   24  N8  UNL     1     -51.662  98.677  23.571  1.00  0.00    -0.290 NA
HETATM   25  C21 UNL     1     -50.762  99.592  22.957  1.00  0.00     0.116 C 
BRANCH  20  26
HETATM   26  C11 UNL     1     -52.786  95.278  20.572  1.00  0.00     0.067 C 
BRANCH  26  27
HETATM   27  C12 UNL     1     -54.271  95.531  20.591  1.00  0.00     0.089 C 
BRANCH  27  28
HETATM   28  C13 UNL     1     -54.696  96.647  19.707  1.00  0.00     0.068 C 
BRANCH  28  29
HETATM   29  N6  UNL     1     -55.157  97.787  20.341  1.00  0.00    -0.373 N 
HETATM   30  C14 UNL     1     -54.888  99.098  20.037  1.00  0.00     0.063 C 
HETATM   31  C15 UNL     1     -54.581  99.990  21.242  1.00  0.00     0.045 C 
HETATM   32  C16 UNL     1     -55.199  99.458  22.499  1.00  0.00     0.011 C 
HETATM   33  C17 UNL     1     -56.487  98.723  22.209  1.00  0.00     0.000 C 
HETATM   34  C18 UNL     1     -57.540  99.635  21.625  1.00  0.00     0.011 C 
HETATM   35  C19 UNL     1     -56.177  97.554  21.346  1.00  0.00     0.131 C 
ENDBRANCH  28  29
ENDBRANCH  27  28
ENDBRANCH  26  27
ENDBRANCH  20  26
ENDBRANCH  10  12
ENDBRANCH   9  10
TORSDOF 6
ENDMDL
MODEL 5
REMARK VINA RESULT: -9.539771721      2.181      5.606
REMARK  6 active torsions:
REMARK  status: ('A' for Active; 'I' for Inactive)
REMARK    1  A    between atoms: C6_9  and  N3_10 
REMARK    2  A    between atoms: N3_10  and  C7_12 
REMARK    3  A    between atoms: N5_18  and  C11_20 
REMARK    4  A    between atoms: C11_20  and  C12_21 
REMARK    5  A    between atoms: C12_21  and  C13_22 
REMARK    6  A    between atoms: C13_22  and  N6_23 
ROOT
HETATM    1  C1  UNL     1     -51.929  92.824  28.715  1.00  0.00     0.054 C 
HETATM    2  C2  UNL     1     -51.094  92.607  27.484  1.00  0.00     0.005 A 
HETATM    3  C3  UNL     1     -50.272  91.510  27.299  1.00  0.00     0.069 A 
HETATM    4  C4  UNL     1     -50.030  90.396  28.170  1.00  0.00     0.101 C 
HETATM    5  N1  UNL     1     -49.817  89.486  28.865  1.00  0.00    -0.191 NA
HETATM    6  C5  UNL     1     -49.708  91.715  26.051  1.00  0.00     0.113 A 
HETATM    7  N2  UNL     1     -50.172  92.868  25.531  1.00  0.00    -0.350 N 
ATOM      8  H2  UNL     1     -49.911  93.247  24.620  1.00  0.00     0.166 HD
HETATM    9  C6  UNL     1     -51.034  93.447  26.396  1.00  0.00     0.128 A 
ENDROOT
BRANCH   9  10
HETATM   10  N3  UNL     1     -51.756  94.651  26.278  1.00  0.00    -0.176 N 
ATOM     11  H3  UNL     1     -52.278  94.978  27.090  1.00  0.00     0.186 HD
BRANCH  10  12
HETATM   12  C7  UNL     1     -51.795  95.362  25.206  1.00  0.00     0.685 A 
HETATM   13  N4  UNL     1     -52.423  95.006  24.082  1.00  0.00    -0.190 N 
HETATM   14  C8  UNL     1     -52.437  95.790  22.986  1.00  0.00     0.070 A 
ATOM     15  H4  UNL     1     -52.909  94.110  24.053  1.00  0.00     0.184 HD
HETATM   16  C9  UNL     1     -51.791  97.001  22.996  1.00  0.00     0.028 A 
HETATM   17  C22 UNL     1     -53.086  95.586  21.643  1.00  0.00     0.090 A 
HETATM   18  C10 UNL     1     -51.130  97.402  24.145  1.00  0.00     0.130 A 
HETATM   19  C20 UNL     1     -51.950  97.635  21.654  1.00  0.00     0.139 A 
HETATM   20  N5  UNL     1     -50.547  98.478  24.269  1.00  0.00    -0.355 N 
HETATM   21  N7  UNL     1     -51.172  96.536  25.207  1.00  0.00    -0.176 N 
ATOM     22  H5  UNL     1     -50.144  98.534  25.203  1.00  0.00     0.166 HD
ATOM     23  H7  UNL     1     -50.690  96.813  26.062  1.00  0.00     0.186 HD
HETATM   24  N8  UNL     1     -52.801  96.767  20.934  1.00  0.00    -0.290 NA
HETATM   25  C21 UNL     1     -53.888  97.474  20.348  1.00  0.00     0.116 C 
BRANCH  20  26
HETATM   26  C11 UNL     1     -50.246  99.652  23.570  1.00  0.00     0.067 C 
BRANCH  26  27
HETATM   27  C12 UNL     1     -48.939 100.192  24.086  1.00  0.00     0.089 C 
BRANCH  27  28
HETATM   28  C13 UNL     1     -47.759  99.387  23.676  1.00  0.00     0.068 C 
BRANCH  28  29
HETATM   29  N6  UNL     1     -47.042  99.862  22.592  1.00  0.00    -0.373 N 
HETATM   30  C14 UNL     1     -46.444  99.145  21.587  1.00  0.00     0.063 C 
HETATM   31  C15 UNL     1     -45.036  99.612  21.210  1.00  0.00     0.045 C 
HETATM   32  C16 UNL     1     -44.820 101.056  21.547  1.00  0.00     0.011 C 
HETATM   33  C17 UNL     1     -46.106 101.843  21.437  1.00  0.00     0.000 C 
HETATM   34  C18 UNL     1     -46.640 101.859  20.025  1.00  0.00     0.011 C 
HETATM   35  C19 UNL     1     -47.074 101.303  22.427  1.00  0.00     0.131 C 
ENDBRANCH  28  29
ENDBRANCH  27  28
ENDBRANCH  26  27
ENDBRANCH  20  26
ENDBRANCH  10  12
ENDBRANCH   9  10
TORSDOF 6
ENDMDL
