MODEL 1
REMARK VINA RESULT: -9.027870262      0.000      0.000
REMARK  12 active torsions:
REMARK  status: ('A' for Active; 'I' for Inactive)
REMARK    1  A    between atoms: C2_2  and  N1_3 
REMARK    2  A    between atoms: N1_3  and  C3_5 
REMARK    3  A    between atoms: C3_5  and  O1_7 
REMARK    4  A    between atoms: C3_5  and  C5_9 
REMARK       I    between atoms: C5_9  and  N2_11 
REMARK       I    between atoms: N2_11  and  C6_13 
REMARK    5  A    between atoms: C6_13  and  C7_15 
REMARK    6  A    between atoms: C7_15  and  O4_16 
REMARK    7  A    between atoms: C7_15  and  N3_18 
REMARK    8  A    between atoms: N3_18  and  C8_20 
REMARK    9  A    between atoms: N5_24  and  C10_25 
REMARK   10  A    between atoms: C12_29  and  C13_30 
REMARK   11  A    between atoms: C15_37  and  N9_38 
REMARK   12  A    between atoms: C16_43  and  N11_44 
ROOT
HETATM    1  C8  UNL     1     -14.397   0.261   9.982  1.00  0.00     0.685 A 
HETATM    2  N4  UNL     1     -13.641   0.443   8.850  1.00  0.00    -0.187 N 
ATOM      3  H4  UNL     1     -13.045  -0.311   8.511  1.00  0.00     0.185 HD
HETATM    4  C9  UNL     1     -13.686   1.609   8.189  1.00  0.00     0.211 A 
HETATM    5  N5  UNL     1     -14.460   2.636   8.601  1.00  0.00    -0.258 N 
HETATM    6  C18 UNL     1     -15.192   2.439   9.705  1.00  0.00     0.346 A 
HETATM    7  O8  UNL     1     -15.921   3.374  10.109  1.00  0.00    -0.246 OA
HETATM    8  N12 UNL     1     -15.174   1.265  10.408  1.00  0.00    -0.141 N 
ATOM      9  H12 UNL     1     -15.746   1.157  11.246  1.00  0.00     0.189 HD
ENDROOT
BRANCH   5  10
HETATM   10  C10 UNL     1     -14.411   3.823   7.839  1.00  0.00     0.062 A 
HETATM   11  C11 UNL     1     -13.234   4.542   7.790  1.00  0.00     0.118 A 
HETATM   12  N6  UNL     1     -13.110   5.649   7.078  1.00  0.00    -0.359 N 
HETATM   13  C12 UNL     1     -14.132   6.190   6.320  1.00  0.00     0.111 A 
ATOM     14  H6  UNL     1     -12.210   6.130   7.089  1.00  0.00     0.165 HD
HETATM   15  C16 UNL     1     -15.303   5.545   6.335  1.00  0.00     0.135 A 
HETATM   16  C17 UNL     1     -15.437   4.335   7.108  1.00  0.00     0.070 A 
BRANCH  13  17
HETATM   17  C13 UNL     1     -13.735   7.371   5.583  1.00  0.00     0.154 A 
HETATM   18  N7  UNL     1     -13.775   7.291   4.196  1.00  0.00    -0.292 N 
HETATM   19  C14 UNL     1     -13.309   8.274   3.446  1.00  0.00     0.340 A 
ATOM     20  H7  UNL     1     -14.170   6.462   3.752  1.00  0.00     0.172 HD
HETATM   21  O5  UNL     1     -13.324   8.248   2.196  1.00  0.00    -0.246 OA
HETATM   22  N8  UNL     1     -12.784   9.380   4.003  1.00  0.00    -0.141 N 
HETATM   23  C15 UNL     1     -12.728   9.498   5.346  1.00  0.00     0.681 A 
ATOM     24  H8  UNL     1     -12.427  10.129   3.410  1.00  0.00     0.189 HD
HETATM   25  N10 UNL     1     -13.220   8.461   6.108  1.00  0.00    -0.174 N 
ATOM     26  H10 UNL     1     -13.183   8.541   7.124  1.00  0.00     0.186 HD
BRANCH  23  27
HETATM   27  N9  UNL     1     -12.230  10.552   5.892  1.00  0.00    -0.234 N 
ATOM     28  H92 UNL     1     -11.705  11.235   5.346  1.00  0.00     0.174 HD
ATOM     29  H91 UNL     1     -12.351  10.729   6.890  1.00  0.00     0.174 HD
ENDBRANCH  23  27
ENDBRANCH  13  17
BRANCH  15  30
HETATM   30  N11 UNL     1     -16.490   5.974   5.732  1.00  0.00    -0.113 N 
HETATM   31  O6  UNL     1     -16.646   7.036   5.151  1.00  0.00    -0.532 OA
HETATM   32  O7  UNL     1     -17.643   5.241   5.976  1.00  0.00    -0.532 OA
ENDBRANCH  15  30
ENDBRANCH   5  10
BRANCH   1  33
HETATM   33  N3  UNL     1     -14.341  -0.847  10.598  1.00  0.00    -0.191 N 
ATOM     34  H3  UNL     1     -14.803  -1.628  10.132  1.00  0.00     0.181 HD
BRANCH  33  35
HETATM   35  C7  UNL     1     -13.726  -1.162  11.848  1.00  0.00     0.328 C 
BRANCH  35  36
HETATM   36  C6  UNL     1     -12.319  -1.585  11.538  1.00  0.00     0.273 C 
HETATM   37  N2  UNL     1     -11.214  -0.719  11.804  1.00  0.00    -0.290 N 
HETATM   38  C5  UNL     1      -9.877  -1.115  11.521  1.00  0.00     0.279 C 
ATOM     39  H2  UNL     1     -11.387   0.203  12.204  1.00  0.00     0.172 HD
HETATM   40  O2  UNL     1      -9.680  -2.274  11.087  1.00  0.00    -0.268 OA
HETATM   41  O3  UNL     1     -12.044  -2.710  11.030  1.00  0.00    -0.268 OA
BRANCH  38  42
HETATM   42  C3  UNL     1      -8.735  -0.206  11.722  1.00  0.00     0.207 C 
HETATM   43  C4  UNL     1      -8.340   0.407  10.368  1.00  0.00     0.081 C 
BRANCH  42  44
HETATM   44  N1  UNL     1      -7.592  -0.834  12.325  1.00  0.00    -0.385 N 
ATOM     45  H1  UNL     1      -7.640  -1.779  12.706  1.00  0.00     0.156 HD
BRANCH  44  46
HETATM   46  C2  UNL     1      -6.393  -0.073  12.366  1.00  0.00     0.112 C 
HETATM   47  C1  UNL     1      -5.421  -0.556  13.415  1.00  0.00     0.026 C 
ENDBRANCH  44  46
ENDBRANCH  42  44
BRANCH  42  48
HETATM   48  O1  UNL     1      -9.185   0.881  12.503  1.00  0.00    -0.363 OA
ATOM     49  H1  UNL     1     -10.084   1.103  12.290  1.00  0.00     0.213 HD
ENDBRANCH  42  48
ENDBRANCH  38  42
ENDBRANCH  35  36
BRANCH  35  50
HETATM   50  O4  UNL     1     -13.586  -0.013  12.648  1.00  0.00    -0.368 OA
ATOM     51  H4  UNL     1     -13.468   0.699  12.031  1.00  0.00     0.212 HD
ENDBRANCH  35  50
ENDBRANCH  33  35
ENDBRANCH   1  33
TORSDOF 12
ENDMDL
MODEL 2
REMARK VINA RESULT: -9.012991367      0.841      1.286
REMARK  12 active torsions:
REMARK  status: ('A' for Active; 'I' for Inactive)
REMARK    1  A    between atoms: C2_2  and  N1_3 
REMARK    2  A    between atoms: N1_3  and  C3_5 
REMARK    3  A    between atoms: C3_5  and  O1_7 
REMARK    4  A    between atoms: C3_5  and  C5_9 
REMARK       I    between atoms: C5_9  and  N2_11 
REMARK       I    between atoms: N2_11  and  C6_13 
REMARK    5  A    between atoms: C6_13  and  C7_15 
REMARK    6  A    between atoms: C7_15  and  O4_16 
REMARK    7  A    between atoms: C7_15  and  N3_18 
REMARK    8  A    between atoms: N3_18  and  C8_20 
REMARK    9  A    between atoms: N5_24  and  C10_25 
REMARK   10  A    between atoms: C12_29  and  C13_30 
REMARK   11  A    between atoms: C15_37  and  N9_38 
REMARK   12  A    between atoms: C16_43  and  N11_44 
ROOT
HETATM    1  C8  UNL     1     -14.413   0.255   9.961  1.00  0.00     0.685 A 
HETATM    2  N4  UNL     1     -13.671   0.413   8.817  1.00  0.00    -0.187 N 
ATOM      3  H4  UNL     1     -13.087  -0.353   8.480  1.00  0.00     0.185 HD
HETATM    4  C9  UNL     1     -13.713   1.570   8.141  1.00  0.00     0.211 A 
HETATM    5  N5  UNL     1     -14.470   2.611   8.549  1.00  0.00    -0.258 N 
HETATM    6  C18 UNL     1     -15.187   2.437   9.666  1.00  0.00     0.346 A 
HETATM    7  O8  UNL     1     -15.901   3.386  10.067  1.00  0.00    -0.246 OA
HETATM    8  N12 UNL     1     -15.173   1.273  10.385  1.00  0.00    -0.141 N 
ATOM      9  H12 UNL     1     -15.733   1.183  11.232  1.00  0.00     0.189 HD
ENDROOT
BRANCH   5  10
HETATM   10  C10 UNL     1     -14.418   3.787   7.770  1.00  0.00     0.062 A 
HETATM   11  C11 UNL     1     -13.225   4.472   7.665  1.00  0.00     0.118 A 
HETATM   12  N6  UNL     1     -13.099   5.566   6.933  1.00  0.00    -0.359 N 
HETATM   13  C12 UNL     1     -14.136   6.127   6.209  1.00  0.00     0.111 A 
ATOM     14  H6  UNL     1     -12.187   6.022   6.901  1.00  0.00     0.165 HD
HETATM   15  C16 UNL     1     -15.322   5.515   6.279  1.00  0.00     0.135 A 
HETATM   16  C17 UNL     1     -15.459   4.319   7.074  1.00  0.00     0.070 A 
BRANCH  13  17
HETATM   17  C13 UNL     1     -13.737   7.287   5.441  1.00  0.00     0.154 A 
HETATM   18  N7  UNL     1     -13.275   8.386   6.155  1.00  0.00    -0.292 N 
HETATM   19  C14 UNL     1     -13.012   9.529   5.546  1.00  0.00     0.340 A 
ATOM     20  H7  UNL     1     -13.136   8.309   7.163  1.00  0.00     0.172 HD
HETATM   21  O5  UNL     1     -12.594  10.544   6.145  1.00  0.00    -0.246 OA
HETATM   22  N8  UNL     1     -13.184   9.661   4.218  1.00  0.00    -0.141 N 
HETATM   23  C15 UNL     1     -13.629   8.617   3.488  1.00  0.00     0.681 A 
ATOM     24  H8  UNL     1     -12.978  10.550   3.764  1.00  0.00     0.189 HD
HETATM   25  N10 UNL     1     -13.896   7.435   4.145  1.00  0.00    -0.174 N 
ATOM     26  H10 UNL     1     -14.232   6.640   3.601  1.00  0.00     0.186 HD
BRANCH  23  27
HETATM   27  N9  UNL     1     -13.795   8.729   2.216  1.00  0.00    -0.234 N 
ATOM     28  H92 UNL     1     -13.104   8.370   1.557  1.00  0.00     0.174 HD
ATOM     29  H91 UNL     1     -14.628   9.181   1.838  1.00  0.00     0.174 HD
ENDBRANCH  23  27
ENDBRANCH  13  17
BRANCH  15  30
HETATM   30  N11 UNL     1     -16.521   5.970   5.719  1.00  0.00    -0.113 N 
HETATM   31  O6  UNL     1     -16.677   7.039   5.151  1.00  0.00    -0.532 OA
HETATM   32  O7  UNL     1     -17.678   5.255   5.995  1.00  0.00    -0.532 OA
ENDBRANCH  15  30
ENDBRANCH   5  10
BRANCH   1  33
HETATM   33  N3  UNL     1     -14.359  -0.845  10.592  1.00  0.00    -0.191 N 
ATOM     34  H3  UNL     1     -14.819  -1.632  10.134  1.00  0.00     0.181 HD
BRANCH  33  35
HETATM   35  C7  UNL     1     -13.751  -1.143  11.849  1.00  0.00     0.328 C 
BRANCH  35  36
HETATM   36  C6  UNL     1     -12.343  -1.575  11.552  1.00  0.00     0.273 C 
HETATM   37  N2  UNL     1     -11.237  -0.707  11.808  1.00  0.00    -0.290 N 
HETATM   38  C5  UNL     1      -9.901  -1.112  11.536  1.00  0.00     0.279 C 
ATOM     39  H2  UNL     1     -11.409   0.221  12.193  1.00  0.00     0.172 HD
HETATM   40  O2  UNL     1      -9.705  -2.278  11.122  1.00  0.00    -0.268 OA
HETATM   41  O3  UNL     1     -12.069  -2.709  11.063  1.00  0.00    -0.268 OA
BRANCH  38  42
HETATM   42  C3  UNL     1      -8.757  -0.203  11.727  1.00  0.00     0.207 C 
HETATM   43  C4  UNL     1      -8.368   0.404  10.368  1.00  0.00     0.081 C 
BRANCH  42  44
HETATM   44  N1  UNL     1      -7.612  -0.828  12.328  1.00  0.00    -0.385 N 
ATOM     45  H1  UNL     1      -7.654  -1.776  12.701  1.00  0.00     0.156 HD
BRANCH  44  46
HETATM   46  C2  UNL     1      -6.416  -0.061  12.375  1.00  0.00     0.112 C 
HETATM   47  C1  UNL     1      -5.497  -0.466  13.501  1.00  0.00     0.026 C 
ENDBRANCH  44  46
ENDBRANCH  42  44
BRANCH  42  48
HETATM   48  O1  UNL     1      -9.203   0.888  12.506  1.00  0.00    -0.363 OA
ATOM     49  H1  UNL     1      -9.804   1.434  12.013  1.00  0.00     0.213 HD
ENDBRANCH  42  48
ENDBRANCH  38  42
ENDBRANCH  35  36
BRANCH  35  50
HETATM   50  O4  UNL     1     -13.611   0.016  12.634  1.00  0.00    -0.368 OA
ATOM     51  H4  UNL     1     -12.680   0.207  12.620  1.00  0.00     0.212 HD
ENDBRANCH  35  50
ENDBRANCH  33  35
ENDBRANCH   1  33
TORSDOF 12
ENDMDL
MODEL 3
REMARK VINA RESULT: -8.911864526      1.505      2.063
REMARK  12 active torsions:
REMARK  status: ('A' for Active; 'I' for Inactive)
REMARK    1  A    between atoms: C2_2  and  N1_3 
REMARK    2  A    between atoms: N1_3  and  C3_5 
REMARK    3  A    between atoms: C3_5  and  O1_7 
REMARK    4  A    between atoms: C3_5  and  C5_9 
REMARK       I    between atoms: C5_9  and  N2_11 
REMARK       I    between atoms: N2_11  and  C6_13 
REMARK    5  A    between atoms: C6_13  and  C7_15 
REMARK    6  A    between atoms: C7_15  and  O4_16 
REMARK    7  A    between atoms: C7_15  and  N3_18 
REMARK    8  A    between atoms: N3_18  and  C8_20 
REMARK    9  A    between atoms: N5_24  and  C10_25 
REMARK   10  A    between atoms: C12_29  and  C13_30 
REMARK   11  A    between atoms: C15_37  and  N9_38 
REMARK   12  A    between atoms: C16_43  and  N11_44 
ROOT
HETATM    1  C8  UNL     1     -14.334   0.103  10.080  1.00  0.00     0.685 A 
HETATM    2  N4  UNL     1     -13.509   0.317   9.005  1.00  0.00    -0.187 N 
ATOM      3  H4  UNL     1     -12.860  -0.411   8.707  1.00  0.00     0.185 HD
HETATM    4  C9  UNL     1     -13.553   1.483   8.344  1.00  0.00     0.211 A 
HETATM    5  N5  UNL     1     -14.394   2.478   8.701  1.00  0.00    -0.258 N 
HETATM    6  C18 UNL     1     -15.192   2.248   9.751  1.00  0.00     0.346 A 
HETATM    7  O8  UNL     1     -15.985   3.153  10.104  1.00  0.00    -0.246 OA
HETATM    8  N12 UNL     1     -15.178   1.074  10.452  1.00  0.00    -0.141 N 
ATOM      9  H12 UNL     1     -15.802   0.939  11.248  1.00  0.00     0.189 HD
ENDROOT
BRANCH   5  10
HETATM   10  C10 UNL     1     -14.338   3.669   7.946  1.00  0.00     0.062 A 
HETATM   11  C11 UNL     1     -15.005   3.733   6.740  1.00  0.00     0.118 A 
HETATM   12  N6  UNL     1     -15.016   4.823   5.993  1.00  0.00    -0.359 N 
HETATM   13  C12 UNL     1     -14.368   5.996   6.340  1.00  0.00     0.111 A 
ATOM     14  H6  UNL     1     -15.530   4.799   5.112  1.00  0.00     0.165 HD
HETATM   15  C16 UNL     1     -13.692   5.994   7.494  1.00  0.00     0.135 A 
HETATM   16  C17 UNL     1     -13.684   4.805   8.311  1.00  0.00     0.070 A 
BRANCH  13  17
HETATM   17  C13 UNL     1     -14.575   7.068   5.391  1.00  0.00     0.154 A 
HETATM   18  N7  UNL     1     -15.891   7.390   5.082  1.00  0.00    -0.292 N 
HETATM   19  C14 UNL     1     -16.169   8.265   4.132  1.00  0.00     0.340 A 
ATOM     20  H7  UNL     1     -16.651   6.945   5.596  1.00  0.00     0.172 HD
HETATM   21  O5  UNL     1     -17.337   8.587   3.818  1.00  0.00    -0.246 OA
HETATM   22  N8  UNL     1     -15.189   8.869   3.438  1.00  0.00    -0.141 N 
HETATM   23  C15 UNL     1     -13.897   8.586   3.708  1.00  0.00     0.681 A 
ATOM     24  H8  UNL     1     -15.421   9.541   2.707  1.00  0.00     0.189 HD
HETATM   25  N10 UNL     1     -13.631   7.670   4.703  1.00  0.00    -0.174 N 
ATOM     26  H10 UNL     1     -12.657   7.450   4.915  1.00  0.00     0.186 HD
BRANCH  23  27
HETATM   27  N9  UNL     1     -12.949   9.159   3.053  1.00  0.00    -0.234 N 
ATOM     28  H92 UNL     1     -12.142   8.632   2.717  1.00  0.00     0.174 HD
ATOM     29  H91 UNL     1     -12.983  10.159   2.854  1.00  0.00     0.174 HD
ENDBRANCH  23  27
ENDBRANCH  13  17
BRANCH  15  30
HETATM   30  N11 UNL     1     -12.883   7.027   7.979  1.00  0.00    -0.113 N 
HETATM   31  O6  UNL     1     -11.954   7.541   7.378  1.00  0.00    -0.532 OA
HETATM   32  O7  UNL     1     -13.002   7.370   9.319  1.00  0.00    -0.532 OA
ENDBRANCH  15  30
ENDBRANCH   5  10
BRANCH   1  33
HETATM   33  N3  UNL     1     -14.278  -1.005  10.698  1.00  0.00    -0.191 N 
ATOM     34  H3  UNL     1     -14.767  -1.779  10.249  1.00  0.00     0.181 HD
BRANCH  33  35
HETATM   35  C7  UNL     1     -13.630  -1.327  11.929  1.00  0.00     0.328 C 
BRANCH  35  36
HETATM   36  C6  UNL     1     -12.217  -1.700  11.584  1.00  0.00     0.273 C 
HETATM   37  N2  UNL     1     -11.133  -0.810  11.854  1.00  0.00    -0.290 N 
HETATM   38  C5  UNL     1      -9.791  -1.160  11.538  1.00  0.00     0.279 C 
ATOM     39  H2  UNL     1     -11.325   0.096  12.282  1.00  0.00     0.172 HD
HETATM   40  O2  UNL     1      -9.568  -2.301  11.071  1.00  0.00    -0.268 OA
HETATM   41  O3  UNL     1     -11.918  -2.804  11.043  1.00  0.00    -0.268 OA
BRANCH  38  42
HETATM   42  C3  UNL     1      -8.672  -0.223  11.743  1.00  0.00     0.207 C 
HETATM   43  C4  UNL     1      -8.287   0.401  10.391  1.00  0.00     0.081 C 
BRANCH  42  44
HETATM   44  N1  UNL     1      -7.516  -0.823  12.351  1.00  0.00    -0.385 N 
ATOM     45  H1  UNL     1      -7.543  -1.767  12.736  1.00  0.00     0.156 HD
BRANCH  44  46
HETATM   46  C2  UNL     1      -6.333  -0.036  12.388  1.00  0.00     0.112 C 
HETATM   47  C1  UNL     1      -5.333  -0.518  13.410  1.00  0.00     0.026 C 
ENDBRANCH  44  46
ENDBRANCH  42  44
BRANCH  42  48
HETATM   48  O1  UNL     1      -9.151   0.853  12.524  1.00  0.00    -0.363 OA
ATOM     49  H1  UNL     1      -9.069   1.675  12.055  1.00  0.00     0.213 HD
ENDBRANCH  42  48
ENDBRANCH  38  42
ENDBRANCH  35  36
BRANCH  35  50
HETATM   50  O4  UNL     1     -13.509  -0.192  12.752  1.00  0.00    -0.368 OA
ATOM     51  H4  UNL     1     -14.383   0.180  12.780  1.00  0.00     0.212 HD
ENDBRANCH  35  50
ENDBRANCH  33  35
ENDBRANCH   1  33
TORSDOF 12
ENDMDL
MODEL 4
REMARK VINA RESULT: -8.825102394      1.622      2.067
REMARK  12 active torsions:
REMARK  status: ('A' for Active; 'I' for Inactive)
REMARK    1  A    between atoms: C2_2  and  N1_3 
REMARK    2  A    between atoms: N1_3  and  C3_5 
REMARK    3  A    between atoms: C3_5  and  O1_7 
REMARK    4  A    between atoms: C3_5  and  C5_9 
REMARK       I    between atoms: C5_9  and  N2_11 
REMARK       I    between atoms: N2_11  and  C6_13 
REMARK    5  A    between atoms: C6_13  and  C7_15 
REMARK    6  A    between atoms: C7_15  and  O4_16 
REMARK    7  A    between atoms: C7_15  and  N3_18 
REMARK    8  A    between atoms: N3_18  and  C8_20 
REMARK    9  A    between atoms: N5_24  and  C10_25 
REMARK   10  A    between atoms: C12_29  and  C13_30 
REMARK   11  A    between atoms: C15_37  and  N9_38 
REMARK   12  A    between atoms: C16_43  and  N11_44 
ROOT
HETATM    1  C8  UNL     1     -15.274   1.082  11.532  1.00  0.00     0.685 A 
HETATM    2  N4  UNL     1     -15.086   0.751  10.213  1.00  0.00    -0.187 N 
ATOM      3  H4  UNL     1     -15.121  -0.225   9.923  1.00  0.00     0.185 HD
HETATM    4  C9  UNL     1     -14.854   1.710   9.305  1.00  0.00     0.211 A 
HETATM    5  N5  UNL     1     -14.797   3.017   9.642  1.00  0.00    -0.258 N 
HETATM    6  C18 UNL     1     -14.986   3.319  10.933  1.00  0.00     0.346 A 
HETATM    7  O8  UNL     1     -14.940   4.524  11.274  1.00  0.00    -0.246 OA
HETATM    8  N12 UNL     1     -15.224   2.371  11.890  1.00  0.00    -0.141 N 
ATOM      9  H12 UNL     1     -15.361   2.643  12.864  1.00  0.00     0.189 HD
ENDROOT
BRANCH   5  10
HETATM   10  C10 UNL     1     -14.525   3.936   8.606  1.00  0.00     0.062 A 
HETATM   11  C11 UNL     1     -13.235   4.396   8.435  1.00  0.00     0.118 A 
HETATM   12  N6  UNL     1     -12.905   5.238   7.471  1.00  0.00    -0.359 N 
HETATM   13  C12 UNL     1     -13.807   5.737   6.549  1.00  0.00     0.111 A 
ATOM     14  H6  UNL     1     -11.932   5.536   7.405  1.00  0.00     0.165 HD
HETATM   15  C16 UNL     1     -15.077   5.338   6.668  1.00  0.00     0.135 A 
HETATM   16  C17 UNL     1     -15.437   4.416   7.717  1.00  0.00     0.070 A 
BRANCH  13  17
HETATM   17  C13 UNL     1     -13.196   6.595   5.556  1.00  0.00     0.154 A 
HETATM   18  N7  UNL     1     -13.172   6.126   4.248  1.00  0.00    -0.292 N 
HETATM   19  C14 UNL     1     -12.521   6.783   3.304  1.00  0.00     0.340 A 
ATOM     20  H7  UNL     1     -13.663   5.263   4.014  1.00  0.00     0.172 HD
HETATM   21  O5  UNL     1     -12.471   6.402   2.114  1.00  0.00    -0.246 OA
HETATM   22  N8  UNL     1     -11.865   7.924   3.582  1.00  0.00    -0.141 N 
HETATM   23  C15 UNL     1     -11.866   8.415   4.839  1.00  0.00     0.681 A 
ATOM     24  H8  UNL     1     -11.367   8.418   2.842  1.00  0.00     0.189 HD
HETATM   25  N10 UNL     1     -12.551   7.712   5.807  1.00  0.00    -0.174 N 
ATOM     26  H10 UNL     1     -12.557   8.075   6.760  1.00  0.00     0.186 HD
BRANCH  23  27
HETATM   27  N9  UNL     1     -11.244   9.507   5.118  1.00  0.00    -0.234 N 
ATOM     28  H92 UNL     1     -11.151  10.255   4.431  1.00  0.00     0.174 HD
ATOM     29  H91 UNL     1     -10.827   9.648   6.038  1.00  0.00     0.174 HD
ENDBRANCH  23  27
ENDBRANCH  13  17
BRANCH  15  30
HETATM   30  N11 UNL     1     -16.163   5.801   5.916  1.00  0.00    -0.113 N 
HETATM   31  O6  UNL     1     -16.169   6.807   5.226  1.00  0.00    -0.532 OA
HETATM   32  O7  UNL     1     -17.395   5.194   6.115  1.00  0.00    -0.532 OA
ENDBRANCH  15  30
ENDBRANCH   5  10
BRANCH   1  33
HETATM   33  N3  UNL     1     -15.489   0.162  12.381  1.00  0.00    -0.191 N 
ATOM     34  H3  UNL     1     -16.471  -0.015  12.592  1.00  0.00     0.181 HD
BRANCH  33  35
HETATM   35  C7  UNL     1     -14.558  -0.663  13.082  1.00  0.00     0.328 C 
BRANCH  35  36
HETATM   36  C6  UNL     1     -13.620  -1.222  12.051  1.00  0.00     0.273 C 
HETATM   37  N2  UNL     1     -12.220  -0.937  12.097  1.00  0.00    -0.290 N 
HETATM   38  C5  UNL     1     -11.325  -1.470  11.128  1.00  0.00     0.279 C 
ATOM     39  H2  UNL     1     -11.856  -0.340  12.838  1.00  0.00     0.172 HD
HETATM   40  O2  UNL     1     -11.781  -2.252  10.263  1.00  0.00    -0.268 OA
HETATM   41  O3  UNL     1     -14.015  -1.960  11.102  1.00  0.00    -0.268 OA
BRANCH  38  42
HETATM   42  C3  UNL     1      -9.892  -1.127  11.120  1.00  0.00     0.207 C 
HETATM   43  C4  UNL     1      -9.170  -1.968  12.186  1.00  0.00     0.081 C 
BRANCH  42  44
HETATM   44  N1  UNL     1      -9.627   0.269  11.338  1.00  0.00    -0.385 N 
ATOM     45  H1  UNL     1      -9.529   0.654  12.277  1.00  0.00     0.156 HD
BRANCH  44  46
HETATM   46  C2  UNL     1      -9.509   1.085  10.181  1.00  0.00     0.112 C 
HETATM   47  C1  UNL     1     -10.815   1.718   9.767  1.00  0.00     0.026 C 
ENDBRANCH  44  46
ENDBRANCH  42  44
BRANCH  42  48
HETATM   48  O1  UNL     1      -9.356  -1.555   9.885  1.00  0.00    -0.363 OA
ATOM     49  H1  UNL     1      -8.448  -1.291   9.800  1.00  0.00     0.213 HD
ENDBRANCH  42  48
ENDBRANCH  38  42
ENDBRANCH  35  36
BRANCH  35  50
HETATM   50  O4  UNL     1     -13.739   0.105  13.931  1.00  0.00    -0.368 OA
ATOM     51  H4  UNL     1     -13.908  -0.235  14.803  1.00  0.00     0.212 HD
ENDBRANCH  35  50
ENDBRANCH  33  35
ENDBRANCH   1  33
TORSDOF 12
ENDMDL
MODEL 5
REMARK VINA RESULT: -8.772551255      1.634      2.206
REMARK  12 active torsions:
REMARK  status: ('A' for Active; 'I' for Inactive)
REMARK    1  A    between atoms: C2_2  and  N1_3 
REMARK    2  A    between atoms: N1_3  and  C3_5 
REMARK    3  A    between atoms: C3_5  and  O1_7 
REMARK    4  A    between atoms: C3_5  and  C5_9 
REMARK       I    between atoms: C5_9  and  N2_11 
REMARK       I    between atoms: N2_11  and  C6_13 
REMARK    5  A    between atoms: C6_13  and  C7_15 
REMARK    6  A    between atoms: C7_15  and  O4_16 
REMARK    7  A    between atoms: C7_15  and  N3_18 
REMARK    8  A    between atoms: N3_18  and  C8_20 
REMARK    9  A    between atoms: N5_24  and  C10_25 
REMARK   10  A    between atoms: C12_29  and  C13_30 
REMARK   11  A    between atoms: C15_37  and  N9_38 
REMARK   12  A    between atoms: C16_43  and  N11_44 
ROOT
HETATM    1  C8  UNL     1     -14.386   0.195  10.014  1.00  0.00     0.685 A 
HETATM    2  N4  UNL     1     -13.620   0.381   8.890  1.00  0.00    -0.187 N 
ATOM      3  H4  UNL     1     -13.001  -0.362   8.567  1.00  0.00     0.185 HD
HETATM    4  C9  UNL     1     -13.683   1.539   8.216  1.00  0.00     0.211 A 
HETATM    5  N5  UNL     1     -14.486   2.552   8.606  1.00  0.00    -0.258 N 
HETATM    6  C18 UNL     1     -15.227   2.350   9.703  1.00  0.00     0.346 A 
HETATM    7  O8  UNL     1     -15.983   3.273  10.087  1.00  0.00    -0.246 OA
HETATM    8  N12 UNL     1     -15.191   1.185  10.419  1.00  0.00    -0.141 N 
ATOM      9  H12 UNL     1     -15.771   1.072  11.251  1.00  0.00     0.189 HD
ENDROOT
BRANCH   5  10
HETATM   10  C10 UNL     1     -14.454   3.732   7.831  1.00  0.00     0.062 A 
HETATM   11  C11 UNL     1     -15.359   3.884   6.801  1.00  0.00     0.118 A 
HETATM   12  N6  UNL     1     -15.402   4.973   6.052  1.00  0.00    -0.359 N 
HETATM   13  C12 UNL     1     -14.556   6.054   6.222  1.00  0.00     0.111 A 
ATOM     14  H6  UNL     1     -16.097   5.017   5.307  1.00  0.00     0.165 HD
HETATM   15  C16 UNL     1     -13.647   5.962   7.199  1.00  0.00     0.135 A 
HETATM   16  C17 UNL     1     -13.603   4.777   8.019  1.00  0.00     0.070 A 
BRANCH  13  17
HETATM   17  C13 UNL     1     -14.836   7.149   5.319  1.00  0.00     0.154 A 
HETATM   18  N7  UNL     1     -13.811   8.061   5.098  1.00  0.00    -0.292 N 
HETATM   19  C14 UNL     1     -14.020   9.158   4.392  1.00  0.00     0.340 A 
ATOM     20  H7  UNL     1     -12.885   7.880   5.485  1.00  0.00     0.172 HD
HETATM   21  O5  UNL     1     -13.130  10.007   4.165  1.00  0.00    -0.246 OA
HETATM   22  N8  UNL     1     -15.230   9.423   3.867  1.00  0.00    -0.141 N 
HETATM   23  C15 UNL     1     -16.252   8.562   4.056  1.00  0.00     0.681 A 
ATOM     24  H8  UNL     1     -15.374  10.275   3.325  1.00  0.00     0.189 HD
HETATM   25  N10 UNL     1     -16.010   7.425   4.796  1.00  0.00    -0.174 N 
ATOM     26  H10 UNL     1     -16.776   6.768   4.944  1.00  0.00     0.186 HD
BRANCH  23  27
HETATM   27  N9  UNL     1     -17.414   8.803   3.558  1.00  0.00    -0.234 N 
ATOM     28  H92 UNL     1     -17.525   9.389   2.731  1.00  0.00     0.174 HD
ATOM     29  H91 UNL     1     -18.254   8.409   3.982  1.00  0.00     0.174 HD
ENDBRANCH  23  27
ENDBRANCH  13  17
BRANCH  15  30
HETATM   30  N11 UNL     1     -12.631   6.885   7.471  1.00  0.00    -0.113 N 
HETATM   31  O6  UNL     1     -12.755   7.898   8.140  1.00  0.00    -0.532 OA
HETATM   32  O7  UNL     1     -11.439   6.762   6.771  1.00  0.00    -0.532 OA
ENDBRANCH  15  30
ENDBRANCH   5  10
BRANCH   1  33
HETATM   33  N3  UNL     1     -14.312  -0.905  10.643  1.00  0.00    -0.191 N 
ATOM     34  H3  UNL     1     -14.776  -1.695  10.195  1.00  0.00     0.181 HD
BRANCH  33  35
HETATM   35  C7  UNL     1     -13.674  -1.200  11.886  1.00  0.00     0.328 C 
BRANCH  35  36
HETATM   36  C6  UNL     1     -12.268  -1.614  11.559  1.00  0.00     0.273 C 
HETATM   37  N2  UNL     1     -11.164  -0.748  11.828  1.00  0.00    -0.290 N 
HETATM   38  C5  UNL     1      -9.829  -1.136  11.528  1.00  0.00     0.279 C 
ATOM     39  H2  UNL     1     -11.336   0.167  12.243  1.00  0.00     0.172 HD
HETATM   40  O2  UNL     1      -9.631  -2.288  11.077  1.00  0.00    -0.268 OA
HETATM   41  O3  UNL     1     -11.994  -2.731  11.033  1.00  0.00    -0.268 OA
BRANCH  38  42
HETATM   42  C3  UNL     1      -8.688  -0.226  11.732  1.00  0.00     0.207 C 
HETATM   43  C4  UNL     1      -8.279   0.375  10.377  1.00  0.00     0.081 C 
BRANCH  42  44
HETATM   44  N1  UNL     1      -7.551  -0.850  12.352  1.00  0.00    -0.385 N 
ATOM     45  H1  UNL     1      -7.593  -1.805  12.707  1.00  0.00     0.156 HD
BRANCH  44  46
HETATM   46  C2  UNL     1      -6.367  -0.070  12.446  1.00  0.00     0.112 C 
HETATM   47  C1  UNL     1      -5.416  -0.564  13.509  1.00  0.00     0.026 C 
ENDBRANCH  44  46
ENDBRANCH  42  44
BRANCH  42  48
HETATM   48  O1  UNL     1      -9.144   0.868  12.500  1.00  0.00    -0.363 OA
ATOM     49  H1  UNL     1      -9.924   1.251  12.116  1.00  0.00     0.213 HD
ENDBRANCH  42  48
ENDBRANCH  38  42
ENDBRANCH  35  36
BRANCH  35  50
HETATM   50  O4  UNL     1     -13.532  -0.040  12.671  1.00  0.00    -0.368 OA
ATOM     51  H4  UNL     1     -13.366  -0.362  13.550  1.00  0.00     0.212 HD
ENDBRANCH  35  50
ENDBRANCH  33  35
ENDBRANCH   1  33
TORSDOF 12
ENDMDL
