MODEL 1
REMARK VINA RESULT: -3.332221268      0.000      0.000
REMARK  5 active torsions:
REMARK  status: ('A' for Active; 'I' for Inactive)
REMARK    1  A    between atoms: N1_1  and  C1_5 
REMARK    2  A    between atoms: C1_5  and  C2_6 
REMARK    3  A    between atoms: C2_6  and  C3_7 
REMARK    4  A    between atoms: C3_7  and  C4_8 
REMARK    5  A    between atoms: C4_8  and  N2_9 
ROOT
HETATM    1  C3  UNL     1       5.309  39.591  -2.100  1.00  0.00     0.032 C 
HETATM    2  C5  UNL     1       4.326  38.933  -1.167  1.00  0.00     0.245 C 
HETATM    3  N3  UNL     1       4.585  39.891  -0.122  1.00  0.00    -0.073 N 
ATOM      4  H31 UNL     1       4.740  39.575   0.836  1.00  0.00     0.277 HD
ATOM      5  H32 UNL     1       3.841  40.506   0.205  1.00  0.00     0.277 HD
HETATM    6  C6  UNL     1       5.695  40.430  -0.909  1.00  0.00     0.245 C 
ENDROOT
BRANCH   1   7
HETATM    7  C2  UNL     1       6.357  38.646  -2.595  1.00  0.00     0.041 C 
BRANCH   7   8
HETATM    8  C1  UNL     1       7.544  38.668  -1.663  1.00  0.00     0.230 C 
BRANCH   8   9
HETATM    9  N1  UNL     1       7.582  37.413  -0.948  1.00  0.00    -0.079 N 
ATOM     10  H13 UNL     1       8.521  37.017  -0.897  1.00  0.00     0.274 HD
ATOM     11  H12 UNL     1       7.425  37.526   0.054  1.00  0.00     0.274 HD
ATOM     12  H11 UNL     1       6.910  36.778  -1.380  1.00  0.00     0.274 HD
ENDBRANCH   8   9
ENDBRANCH   7   8
ENDBRANCH   1   7
BRANCH   1  13
HETATM   13  C4  UNL     1       4.678  40.424  -3.183  1.00  0.00     0.242 C 
BRANCH  13  14
HETATM   14  N2  UNL     1       3.241  40.119  -3.216  1.00  0.00    -0.079 N 
ATOM     15  H23 UNL     1       2.704  40.807  -3.744  1.00  0.00     0.274 HD
ATOM     16  H22 UNL     1       3.025  39.305  -3.792  1.00  0.00     0.274 HD
ATOM     17  H21 UNL     1       2.916  40.018  -2.254  1.00  0.00     0.274 HD
ENDBRANCH  13  14
ENDBRANCH   1  13
TORSDOF 5
ENDMDL
MODEL 2
REMARK VINA RESULT: -2.965613262      0.782      2.274
REMARK  5 active torsions:
REMARK  status: ('A' for Active; 'I' for Inactive)
REMARK    1  A    between atoms: N1_1  and  C1_5 
REMARK    2  A    between atoms: C1_5  and  C2_6 
REMARK    3  A    between atoms: C2_6  and  C3_7 
REMARK    4  A    between atoms: C3_7  and  C4_8 
REMARK    5  A    between atoms: C4_8  and  N2_9 
ROOT
HETATM    1  C3  UNL     1       5.430  39.629  -1.852  1.00  0.00     0.032 C 
HETATM    2  C5  UNL     1       5.262  40.440  -3.110  1.00  0.00     0.245 C 
HETATM    3  N3  UNL     1       3.830  40.290  -3.088  1.00  0.00    -0.073 N 
ATOM      4  H31 UNL     1       3.328  40.037  -3.940  1.00  0.00     0.277 HD
ATOM      5  H32 UNL     1       3.231  41.109  -2.983  1.00  0.00     0.277 HD
HETATM    6  C6  UNL     1       3.960  39.327  -1.994  1.00  0.00     0.245 C 
ENDROOT
BRANCH   1   7
HETATM    7  C2  UNL     1       6.352  38.466  -2.033  1.00  0.00     0.041 C 
BRANCH   7   8
HETATM    8  C1  UNL     1       7.782  38.948  -2.054  1.00  0.00     0.230 C 
BRANCH   8   9
HETATM    9  N1  UNL     1       8.649  37.792  -2.096  1.00  0.00    -0.079 N 
ATOM     10  H13 UNL     1       9.010  37.605  -3.032  1.00  0.00     0.274 HD
ATOM     11  H12 UNL     1       9.543  37.954  -1.632  1.00  0.00     0.274 HD
ATOM     12  H11 UNL     1       8.142  36.998  -1.705  1.00  0.00     0.274 HD
ENDBRANCH   8   9
ENDBRANCH   7   8
ENDBRANCH   1   7
BRANCH   1  13
HETATM   13  C4  UNL     1       5.710  40.444  -0.618  1.00  0.00     0.242 C 
BRANCH  13  14
HETATM   14  N2  UNL     1       4.526  40.383   0.249  1.00  0.00    -0.079 N 
ATOM     15  H23 UNL     1       4.750  40.535   1.233  1.00  0.00     0.274 HD
ATOM     16  H22 UNL     1       3.905  41.183   0.124  1.00  0.00     0.274 HD
ATOM     17  H21 UNL     1       4.058  39.491   0.085  1.00  0.00     0.274 HD
ENDBRANCH  13  14
ENDBRANCH   1  13
TORSDOF 5
ENDMDL
MODEL 3
REMARK VINA RESULT: -2.874716276      0.971      3.556
REMARK  5 active torsions:
REMARK  status: ('A' for Active; 'I' for Inactive)
REMARK    1  A    between atoms: N1_1  and  C1_5 
REMARK    2  A    between atoms: C1_5  and  C2_6 
REMARK    3  A    between atoms: C2_6  and  C3_7 
REMARK    4  A    between atoms: C3_7  and  C4_8 
REMARK    5  A    between atoms: C4_8  and  N2_9 
ROOT
HETATM    1  C3  UNL     1       4.985  39.598  -1.902  1.00  0.00     0.032 C 
HETATM    2  C5  UNL     1       4.892  40.444  -0.660  1.00  0.00     0.245 C 
HETATM    3  N3  UNL     1       4.188  39.415   0.062  1.00  0.00    -0.073 N 
ATOM      4  H31 UNL     1       3.357  39.647   0.606  1.00  0.00     0.277 HD
ATOM      5  H32 UNL     1       4.606  38.992   0.890  1.00  0.00     0.277 HD
HETATM    6  C6  UNL     1       4.068  38.646  -1.178  1.00  0.00     0.245 C 
ENDROOT
BRANCH   1   7
HETATM    7  C2  UNL     1       4.404  40.271  -3.104  1.00  0.00     0.041 C 
BRANCH   7   8
HETATM    8  C1  UNL     1       2.904  40.369  -2.958  1.00  0.00     0.230 C 
BRANCH   8   9
HETATM    9  N1  UNL     1       2.307  40.137  -4.254  1.00  0.00    -0.079 N 
ATOM     10  H13 UNL     1       2.288  40.977  -4.834  1.00  0.00     0.274 HD
ATOM     11  H12 UNL     1       2.894  39.564  -4.861  1.00  0.00     0.274 HD
ATOM     12  H11 UNL     1       1.380  39.736  -4.112  1.00  0.00     0.274 HD
ENDBRANCH   8   9
ENDBRANCH   7   8
ENDBRANCH   1   7
BRANCH   1  13
HETATM   13  C4  UNL     1       6.340  38.987  -2.141  1.00  0.00     0.242 C 
BRANCH  13  14
HETATM   14  N2  UNL     1       6.476  37.819  -1.259  1.00  0.00    -0.079 N 
ATOM     15  H23 UNL     1       7.150  37.138  -1.610  1.00  0.00     0.274 HD
ATOM     16  H22 UNL     1       6.948  38.041  -0.383  1.00  0.00     0.274 HD
ATOM     17  H21 UNL     1       5.548  37.419  -1.117  1.00  0.00     0.274 HD
ENDBRANCH  13  14
ENDBRANCH   1  13
TORSDOF 5
ENDMDL
MODEL 4
REMARK VINA RESULT: -2.726009899      1.583      2.470
REMARK  5 active torsions:
REMARK  status: ('A' for Active; 'I' for Inactive)
REMARK    1  A    between atoms: N1_1  and  C1_5 
REMARK    2  A    between atoms: C1_5  and  C2_6 
REMARK    3  A    between atoms: C2_6  and  C3_7 
REMARK    4  A    between atoms: C3_7  and  C4_8 
REMARK    5  A    between atoms: C4_8  and  N2_9 
ROOT
HETATM    1  C3  UNL     1       6.053  38.639  -1.624  1.00  0.00     0.032 C 
HETATM    2  C5  UNL     1       6.386  40.089  -1.389  1.00  0.00     0.245 C 
HETATM    3  N3  UNL     1       6.076  40.443  -2.750  1.00  0.00    -0.073 N 
ATOM      4  H31 UNL     1       6.711  41.038  -3.283  1.00  0.00     0.277 HD
ATOM      5  H32 UNL     1       5.311  41.087  -2.951  1.00  0.00     0.277 HD
HETATM    6  C6  UNL     1       5.948  39.023  -3.078  1.00  0.00     0.245 C 
ENDROOT
BRANCH   1   7
HETATM    7  C2  UNL     1       7.182  37.723  -1.274  1.00  0.00     0.041 C 
BRANCH   7   8
HETATM    8  C1  UNL     1       8.111  37.586  -2.456  1.00  0.00     0.230 C 
BRANCH   8   9
HETATM    9  N1  UNL     1       9.387  38.162  -2.097  1.00  0.00    -0.079 N 
ATOM     10  H13 UNL     1       9.306  38.876  -1.374  1.00  0.00     0.274 HD
ATOM     11  H12 UNL     1       9.982  37.511  -1.584  1.00  0.00     0.274 HD
ATOM     12  H11 UNL     1       9.830  38.511  -2.947  1.00  0.00     0.274 HD
ENDBRANCH   8   9
ENDBRANCH   7   8
ENDBRANCH   1   7
BRANCH   1  13
HETATM   13  C4  UNL     1       4.722  38.208  -1.068  1.00  0.00     0.242 C 
BRANCH  13  14
HETATM   14  N2  UNL     1       4.274  39.229  -0.112  1.00  0.00    -0.079 N 
ATOM     15  H23 UNL     1       4.246  40.164  -0.518  1.00  0.00     0.274 HD
ATOM     16  H22 UNL     1       3.282  39.148   0.115  1.00  0.00     0.274 HD
ATOM     17  H21 UNL     1       4.872  39.176   0.713  1.00  0.00     0.274 HD
ENDBRANCH  13  14
ENDBRANCH   1  13
TORSDOF 5
ENDMDL
MODEL 5
REMARK VINA RESULT: -2.541225481      1.191      3.447
REMARK  5 active torsions:
REMARK  status: ('A' for Active; 'I' for Inactive)
REMARK    1  A    between atoms: N1_1  and  C1_5 
REMARK    2  A    between atoms: C1_5  and  C2_6 
REMARK    3  A    between atoms: C2_6  and  C3_7 
REMARK    4  A    between atoms: C3_7  and  C4_8 
REMARK    5  A    between atoms: C4_8  and  N2_9 
ROOT
HETATM    1  C3  UNL     1       5.264  39.854  -1.854  1.00  0.00     0.032 C 
HETATM    2  C5  UNL     1       5.985  38.542  -2.018  1.00  0.00     0.245 C 
HETATM    3  N3  UNL     1       7.243  39.113  -1.611  1.00  0.00    -0.073 N 
ATOM      4  H31 UNL     1       8.090  38.922  -2.146  1.00  0.00     0.277 HD
ATOM      5  H32 UNL     1       7.707  38.781  -0.765  1.00  0.00     0.277 HD
HETATM    6  C6  UNL     1       6.635  40.444  -1.643  1.00  0.00     0.245 C 
ENDROOT
BRANCH   1   7
HETATM    7  C2  UNL     1       4.557  40.283  -3.100  1.00  0.00     0.041 C 
BRANCH   7   8
HETATM    8  C1  UNL     1       3.082  40.443  -2.819  1.00  0.00     0.230 C 
BRANCH   8   9
HETATM    9  N1  UNL     1       2.347  39.784  -3.874  1.00  0.00    -0.079 N 
ATOM     10  H13 UNL     1       2.518  40.197  -4.791  1.00  0.00     0.274 HD
ATOM     11  H12 UNL     1       2.702  38.848  -4.075  1.00  0.00     0.274 HD
ATOM     12  H11 UNL     1       1.358  39.782  -3.622  1.00  0.00     0.274 HD
ENDBRANCH   8   9
ENDBRANCH   7   8
ENDBRANCH   1   7
BRANCH   1  13
HETATM   13  C4  UNL     1       4.422  39.951  -0.610  1.00  0.00     0.242 C 
BRANCH  13  14
HETATM   14  N2  UNL     1       4.175  38.589  -0.117  1.00  0.00    -0.079 N 
ATOM     15  H23 UNL     1       5.037  38.081   0.083  1.00  0.00     0.274 HD
ATOM     16  H22 UNL     1       3.786  38.576   0.825  1.00  0.00     0.274 HD
ATOM     17  H21 UNL     1       3.582  38.109  -0.795  1.00  0.00     0.274 HD
ENDBRANCH  13  14
ENDBRANCH   1  13
TORSDOF 5
ENDMDL
