MODEL 1
REMARK VINA RESULT: -7.532638860      0.000      0.000
REMARK  9 active torsions:
REMARK  status: ('A' for Active; 'I' for Inactive)
REMARK    1  A    between atoms: C2_3  and  N2_4 
REMARK    2  A    between atoms: C2_3  and  C3_8 
REMARK    3  A    between atoms: C3_8  and  C4_9 
REMARK    4  A    between atoms: C4_9  and  N3_10 
REMARK       I    between atoms: N3_10  and  C5_12 
REMARK    5  A    between atoms: C5_12  and  C6_14 
REMARK    6  A    between atoms: C7_19  and  N6_20 
REMARK       I    between atoms: N6_20  and  C8_22 
REMARK    7  A    between atoms: N8_24  and  C9_26 
REMARK    8  A    between atoms: C9_26  and  C10_27 
REMARK    9  A    between atoms: C10_27  and  N9_28 
ROOT
HETATM    1  N1  UNL     1      87.744 -26.714   1.792  1.00  0.00    -0.195 NA
HETATM    2  C1  UNL     1      86.849 -27.229   2.340  1.00  0.00     0.092 C 
HETATM    3  C2  UNL     1      85.734 -27.894   3.014  1.00  0.00     0.290 C 
ENDROOT
BRANCH   3   4
HETATM    4  N2  UNL     1      85.707 -27.566   4.414  1.00  0.00    -0.063 N 
ATOM      5  H23 UNL     1      86.647 -27.537   4.811  1.00  0.00     0.275 HD
ATOM      6  H22 UNL     1      85.445 -26.592   4.568  1.00  0.00     0.275 HD
ATOM      7  H21 UNL     1      85.101 -28.205   4.928  1.00  0.00     0.275 HD
ENDBRANCH   3   4
BRANCH   3   8
HETATM    8  C3  UNL     1      85.841 -29.390   2.775  1.00  0.00     0.067 C 
BRANCH   8   9
HETATM    9  C4  UNL     1      85.034 -29.817   1.579  1.00  0.00     0.126 C 
BRANCH   9  10
HETATM   10  N3  UNL     1      85.908 -30.428   0.611  1.00  0.00    -0.354 N 
HETATM   11  C5  UNL     1      85.922 -30.130  -0.767  1.00  0.00     0.287 C 
HETATM   12  O1  UNL     1      85.157 -29.288  -1.252  1.00  0.00    -0.264 OA
ATOM     13  H3  UNL     1      86.568 -31.129   0.947  1.00  0.00     0.162 HD
BRANCH  11  14
HETATM   14  C6  UNL     1      86.853 -30.826  -1.638  1.00  0.00     0.204 A 
HETATM   15  N4  UNL     1      87.995 -30.372  -2.190  1.00  0.00    -0.266 N 
HETATM   16  N5  UNL     1      88.540 -31.333  -2.917  1.00  0.00    -0.130 N 
ATOM     17  H4  UNL     1      88.379 -29.435  -2.068  1.00  0.00     0.189 HD
HETATM   18  C7  UNL     1      87.773 -32.435  -2.858  1.00  0.00     0.701 A 
ATOM     19  H5  UNL     1      89.412 -31.250  -3.442  1.00  0.00     0.205 HD
HETATM   20  N10 UNL     1      86.739 -32.106  -2.067  1.00  0.00    -0.168 N 
ATOM     21  H10 UNL     1      85.973 -32.733  -1.823  1.00  0.00     0.186 HD
BRANCH  18  22
HETATM   22  N6  UNL     1      87.983 -33.580  -3.443  1.00  0.00    -0.162 N 
HETATM   23  C8  UNL     1      88.776 -34.589  -2.853  1.00  0.00     0.202 C 
HETATM   24  N7  UNL     1      88.207 -35.326  -1.767  1.00  0.00    -0.063 NA
HETATM   25  N8  UNL     1      89.949 -34.833  -3.271  1.00  0.00    -0.362 N 
ATOM     26  H8  UNL     1      90.320 -34.285  -4.048  1.00  0.00     0.162 HD
ATOM     27  H6  UNL     1      87.561 -33.753  -4.355  1.00  0.00     0.187 HD
BRANCH  25  28
HETATM   28  C9  UNL     1      90.780 -35.864  -2.682  1.00  0.00     0.149 C 
BRANCH  28  29
HETATM   29  C10 UNL     1      92.222 -35.719  -3.118  1.00  0.00     0.249 C 
BRANCH  29  30
HETATM   30  N9  UNL     1      93.072 -36.474  -2.236  1.00  0.00    -0.078 N 
ATOM     31  H93 UNL     1      93.688 -35.874  -1.689  1.00  0.00     0.274 HD
ATOM     32  H92 UNL     1      92.552 -36.892  -1.465  1.00  0.00     0.274 HD
ATOM     33  H91 UNL     1      93.590 -37.170  -2.773  1.00  0.00     0.274 HD
ENDBRANCH  29  30
ENDBRANCH  28  29
ENDBRANCH  25  28
ENDBRANCH  18  22
ENDBRANCH  11  14
ENDBRANCH   9  10
ENDBRANCH   8   9
ENDBRANCH   3   8
TORSDOF 9
ENDMDL
MODEL 2
REMARK VINA RESULT: -7.493193885      1.242      1.920
REMARK  9 active torsions:
REMARK  status: ('A' for Active; 'I' for Inactive)
REMARK    1  A    between atoms: C2_3  and  N2_4 
REMARK    2  A    between atoms: C2_3  and  C3_8 
REMARK    3  A    between atoms: C3_8  and  C4_9 
REMARK    4  A    between atoms: C4_9  and  N3_10 
REMARK       I    between atoms: N3_10  and  C5_12 
REMARK    5  A    between atoms: C5_12  and  C6_14 
REMARK    6  A    between atoms: C7_19  and  N6_20 
REMARK       I    between atoms: N6_20  and  C8_22 
REMARK    7  A    between atoms: N8_24  and  C9_26 
REMARK    8  A    between atoms: C9_26  and  C10_27 
REMARK    9  A    between atoms: C10_27  and  N9_28 
ROOT
HETATM    1  N1  UNL     1      82.874 -30.843   4.090  1.00  0.00    -0.195 NA
HETATM    2  C1  UNL     1      83.965 -30.495   3.852  1.00  0.00     0.092 C 
HETATM    3  C2  UNL     1      85.323 -30.055   3.533  1.00  0.00     0.290 C 
ENDROOT
BRANCH   3   4
HETATM    4  N2  UNL     1      85.878 -29.275   4.605  1.00  0.00    -0.063 N 
ATOM      5  H23 UNL     1      85.226 -29.189   5.385  1.00  0.00     0.275 HD
ATOM      6  H22 UNL     1      86.628 -29.774   5.085  1.00  0.00     0.275 HD
ATOM      7  H21 UNL     1      86.187 -28.362   4.272  1.00  0.00     0.275 HD
ENDBRANCH   3   4
BRANCH   3   8
HETATM    8  C3  UNL     1      85.292 -29.291   2.220  1.00  0.00     0.067 C 
BRANCH   8   9
HETATM    9  C4  UNL     1      84.576 -30.065   1.147  1.00  0.00     0.126 C 
BRANCH   9  10
HETATM   10  N3  UNL     1      85.547 -30.678   0.277  1.00  0.00    -0.354 N 
HETATM   11  C5  UNL     1      85.849 -30.246  -1.030  1.00  0.00     0.287 C 
HETATM   12  O1  UNL     1      85.281 -29.271  -1.533  1.00  0.00    -0.264 OA
ATOM     13  H3  UNL     1      86.055 -31.488   0.635  1.00  0.00     0.162 HD
BRANCH  11  14
HETATM   14  C6  UNL     1      86.848 -30.962  -1.804  1.00  0.00     0.204 A 
HETATM   15  N4  UNL     1      88.050 -30.532  -2.238  1.00  0.00    -0.266 N 
HETATM   16  N5  UNL     1      88.644 -31.504  -2.908  1.00  0.00    -0.130 N 
ATOM     17  H4  UNL     1      88.439 -29.603  -2.075  1.00  0.00     0.189 HD
HETATM   18  C7  UNL     1      87.852 -32.589  -2.930  1.00  0.00     0.701 A 
ATOM     19  H5  UNL     1      89.566 -31.440  -3.343  1.00  0.00     0.205 HD
HETATM   20  N10 UNL     1      86.750 -32.239  -2.246  1.00  0.00    -0.168 N 
ATOM     21  H10 UNL     1      85.950 -32.850  -2.082  1.00  0.00     0.186 HD
BRANCH  18  22
HETATM   22  N6  UNL     1      88.095 -33.739  -3.494  1.00  0.00    -0.162 N 
HETATM   23  C8  UNL     1      88.898 -34.722  -2.875  1.00  0.00     0.202 C 
HETATM   24  N7  UNL     1      88.326 -35.455  -1.788  1.00  0.00    -0.063 NA
HETATM   25  N8  UNL     1      90.083 -34.948  -3.270  1.00  0.00    -0.362 N 
ATOM     26  H8  UNL     1      90.456 -34.404  -4.049  1.00  0.00     0.162 HD
ATOM     27  H6  UNL     1      87.692 -33.934  -4.410  1.00  0.00     0.187 HD
BRANCH  25  28
HETATM   28  C9  UNL     1      90.925 -35.953  -2.651  1.00  0.00     0.149 C 
BRANCH  28  29
HETATM   29  C10 UNL     1      92.377 -35.756  -3.029  1.00  0.00     0.249 C 
BRANCH  29  30
HETATM   30  N9  UNL     1      93.215 -36.500  -2.126  1.00  0.00    -0.078 N 
ATOM     31  H93 UNL     1      94.042 -35.972  -1.846  1.00  0.00     0.274 HD
ATOM     32  H92 UNL     1      92.790 -36.606  -1.204  1.00  0.00     0.274 HD
ATOM     33  H91 UNL     1      93.456 -37.398  -2.544  1.00  0.00     0.274 HD
ENDBRANCH  29  30
ENDBRANCH  28  29
ENDBRANCH  25  28
ENDBRANCH  18  22
ENDBRANCH  11  14
ENDBRANCH   9  10
ENDBRANCH   8   9
ENDBRANCH   3   8
TORSDOF 9
ENDMDL
MODEL 3
REMARK VINA RESULT: -7.316581587      2.201      8.147
REMARK  9 active torsions:
REMARK  status: ('A' for Active; 'I' for Inactive)
REMARK    1  A    between atoms: C2_3  and  N2_4 
REMARK    2  A    between atoms: C2_3  and  C3_8 
REMARK    3  A    between atoms: C3_8  and  C4_9 
REMARK    4  A    between atoms: C4_9  and  N3_10 
REMARK       I    between atoms: N3_10  and  C5_12 
REMARK    5  A    between atoms: C5_12  and  C6_14 
REMARK    6  A    between atoms: C7_19  and  N6_20 
REMARK       I    between atoms: N6_20  and  C8_22 
REMARK    7  A    between atoms: N8_24  and  C9_26 
REMARK    8  A    between atoms: C9_26  and  C10_27 
REMARK    9  A    between atoms: C10_27  and  N9_28 
ROOT
HETATM    1  N1  UNL     1      91.143 -37.202   0.698  1.00  0.00    -0.195 NA
HETATM    2  C1  UNL     1      90.684 -37.152  -0.376  1.00  0.00     0.092 C 
HETATM    3  C2  UNL     1      90.090 -37.078  -1.711  1.00  0.00     0.290 C 
ENDROOT
BRANCH   3   4
HETATM    4  N2  UNL     1      91.080 -36.743  -2.698  1.00  0.00    -0.063 N 
ATOM      5  H23 UNL     1      91.535 -35.855  -2.488  1.00  0.00     0.275 HD
ATOM      6  H22 UNL     1      91.895 -37.353  -2.636  1.00  0.00     0.275 HD
ATOM      7  H21 UNL     1      90.678 -36.747  -3.635  1.00  0.00     0.275 HD
ENDBRANCH   3   4
BRANCH   3   8
HETATM    8  C3  UNL     1      88.945 -36.080  -1.681  1.00  0.00     0.067 C 
BRANCH   8   9
HETATM    9  C4  UNL     1      89.073 -35.060  -2.779  1.00  0.00     0.126 C 
BRANCH   9  10
HETATM   10  N3  UNL     1      88.562 -33.796  -2.314  1.00  0.00    -0.354 N 
HETATM   11  C5  UNL     1      87.708 -32.949  -3.049  1.00  0.00     0.287 C 
HETATM   12  O1  UNL     1      87.323 -33.251  -4.184  1.00  0.00    -0.264 OA
ATOM     13  H3  UNL     1      88.840 -33.490  -1.381  1.00  0.00     0.162 HD
BRANCH  11  14
HETATM   14  C6  UNL     1      87.271 -31.694  -2.462  1.00  0.00     0.204 A 
HETATM   15  N4  UNL     1      87.788 -30.460  -2.622  1.00  0.00    -0.266 N 
HETATM   16  N5  UNL     1      87.087 -29.597  -1.908  1.00  0.00    -0.130 N 
ATOM     17  H4  UNL     1      88.594 -30.228  -3.203  1.00  0.00     0.189 HD
HETATM   18  C7  UNL     1      86.097 -30.241  -1.265  1.00  0.00     0.701 A 
ATOM     19  H5  UNL     1      87.268 -28.594  -1.853  1.00  0.00     0.205 HD
HETATM   20  N10 UNL     1      86.225 -31.531  -1.617  1.00  0.00    -0.168 N 
ATOM     21  H10 UNL     1      85.618 -32.284  -1.293  1.00  0.00     0.186 HD
BRANCH  18  22
HETATM   22  N6  UNL     1      85.202 -29.728  -0.468  1.00  0.00    -0.162 N 
HETATM   23  C8  UNL     1      85.348 -29.751   0.936  1.00  0.00     0.202 C 
HETATM   24  N7  UNL     1      86.287 -28.843   1.518  1.00  0.00    -0.063 NA
HETATM   25  N8  UNL     1      84.670 -30.548   1.655  1.00  0.00    -0.362 N 
ATOM     26  H8  UNL     1      84.011 -31.181   1.203  1.00  0.00     0.162 HD
ATOM     27  H6  UNL     1      84.371 -29.296  -0.872  1.00  0.00     0.187 HD
BRANCH  25  28
HETATM   28  C9  UNL     1      84.802 -30.588   3.098  1.00  0.00     0.149 C 
BRANCH  28  29
HETATM   29  C10 UNL     1      83.451 -30.496   3.772  1.00  0.00     0.249 C 
BRANCH  29  30
HETATM   30  N9  UNL     1      82.425 -30.329   2.777  1.00  0.00    -0.078 N 
ATOM     31  H93 UNL     1      81.535 -30.044   3.186  1.00  0.00     0.274 HD
ATOM     32  H92 UNL     1      82.586 -29.509   2.191  1.00  0.00     0.274 HD
ATOM     33  H91 UNL     1      82.339 -31.184   2.227  1.00  0.00     0.274 HD
ENDBRANCH  29  30
ENDBRANCH  28  29
ENDBRANCH  25  28
ENDBRANCH  18  22
ENDBRANCH  11  14
ENDBRANCH   9  10
ENDBRANCH   8   9
ENDBRANCH   3   8
TORSDOF 9
ENDMDL
MODEL 4
REMARK VINA RESULT: -7.054687919      1.926      8.153
REMARK  9 active torsions:
REMARK  status: ('A' for Active; 'I' for Inactive)
REMARK    1  A    between atoms: C2_3  and  N2_4 
REMARK    2  A    between atoms: C2_3  and  C3_8 
REMARK    3  A    between atoms: C3_8  and  C4_9 
REMARK    4  A    between atoms: C4_9  and  N3_10 
REMARK       I    between atoms: N3_10  and  C5_12 
REMARK    5  A    between atoms: C5_12  and  C6_14 
REMARK    6  A    between atoms: C7_19  and  N6_20 
REMARK       I    between atoms: N6_20  and  C8_22 
REMARK    7  A    between atoms: N8_24  and  C9_26 
REMARK    8  A    between atoms: C9_26  and  C10_27 
REMARK    9  A    between atoms: C10_27  and  N9_28 
ROOT
HETATM    1  N1  UNL     1      91.115 -37.181   0.745  1.00  0.00    -0.195 NA
HETATM    2  C1  UNL     1      90.665 -37.138  -0.333  1.00  0.00     0.092 C 
HETATM    3  C2  UNL     1      90.082 -37.073  -1.673  1.00  0.00     0.290 C 
ENDROOT
BRANCH   3   4
HETATM    4  N2  UNL     1      91.078 -36.734  -2.653  1.00  0.00    -0.063 N 
ATOM      5  H23 UNL     1      91.802 -37.450  -2.716  1.00  0.00     0.275 HD
ATOM      6  H22 UNL     1      90.710 -36.802  -3.602  1.00  0.00     0.275 HD
ATOM      7  H21 UNL     1      91.475 -35.813  -2.468  1.00  0.00     0.275 HD
ENDBRANCH   3   4
BRANCH   3   8
HETATM    8  C3  UNL     1      88.929 -36.083  -1.656  1.00  0.00     0.067 C 
BRANCH   8   9
HETATM    9  C4  UNL     1      89.038 -35.091  -2.782  1.00  0.00     0.126 C 
BRANCH   9  10
HETATM   10  N3  UNL     1      88.566 -33.807  -2.330  1.00  0.00    -0.354 N 
HETATM   11  C5  UNL     1      87.717 -32.954  -3.063  1.00  0.00     0.287 C 
HETATM   12  O1  UNL     1      87.302 -33.267  -4.184  1.00  0.00    -0.264 OA
ATOM     13  H3  UNL     1      88.870 -33.492  -1.409  1.00  0.00     0.162 HD
BRANCH  11  14
HETATM   14  C6  UNL     1      87.322 -31.679  -2.490  1.00  0.00     0.204 A 
HETATM   15  N4  UNL     1      87.800 -30.447  -2.757  1.00  0.00    -0.266 N 
HETATM   16  N5  UNL     1      87.160 -29.561  -2.013  1.00  0.00    -0.130 N 
ATOM     17  H4  UNL     1      88.539 -30.232  -3.426  1.00  0.00     0.189 HD
HETATM   18  C7  UNL     1      86.252 -30.187  -1.245  1.00  0.00     0.701 A 
ATOM     19  H5  UNL     1      87.331 -28.555  -2.021  1.00  0.00     0.205 HD
HETATM   20  N10 UNL     1      86.364 -31.489  -1.551  1.00  0.00    -0.168 N 
ATOM     21  H10 UNL     1      85.805 -32.234  -1.134  1.00  0.00     0.186 HD
BRANCH  18  22
HETATM   22  N6  UNL     1      85.434 -29.648  -0.384  1.00  0.00    -0.162 N 
HETATM   23  C8  UNL     1      85.828 -29.350   0.939  1.00  0.00     0.202 C 
HETATM   24  N7  UNL     1      86.674 -28.213   1.136  1.00  0.00    -0.063 NA
HETATM   25  N8  UNL     1      85.445 -30.063   1.916  1.00  0.00    -0.362 N 
ATOM     26  H8  UNL     1      84.842 -30.866   1.735  1.00  0.00     0.162 HD
ATOM     27  H6  UNL     1      84.480 -29.436  -0.676  1.00  0.00     0.187 HD
BRANCH  25  28
HETATM   28  C9  UNL     1      85.836 -29.775   3.282  1.00  0.00     0.149 C 
BRANCH  28  29
HETATM   29  C10 UNL     1      84.916 -28.749   3.907  1.00  0.00     0.249 C 
BRANCH  29  30
HETATM   30  N9  UNL     1      85.678 -27.592   4.298  1.00  0.00    -0.078 N 
ATOM     31  H93 UNL     1      85.132 -26.733   4.235  1.00  0.00     0.274 HD
ATOM     32  H92 UNL     1      85.863 -27.574   5.302  1.00  0.00     0.274 HD
ATOM     33  H91 UNL     1      86.536 -27.545   3.748  1.00  0.00     0.274 HD
ENDBRANCH  29  30
ENDBRANCH  28  29
ENDBRANCH  25  28
ENDBRANCH  18  22
ENDBRANCH  11  14
ENDBRANCH   9  10
ENDBRANCH   8   9
ENDBRANCH   3   8
TORSDOF 9
ENDMDL
MODEL 5
REMARK VINA RESULT: -6.914827248      1.147      1.541
REMARK  9 active torsions:
REMARK  status: ('A' for Active; 'I' for Inactive)
REMARK    1  A    between atoms: C2_3  and  N2_4 
REMARK    2  A    between atoms: C2_3  and  C3_8 
REMARK    3  A    between atoms: C3_8  and  C4_9 
REMARK    4  A    between atoms: C4_9  and  N3_10 
REMARK       I    between atoms: N3_10  and  C5_12 
REMARK    5  A    between atoms: C5_12  and  C6_14 
REMARK    6  A    between atoms: C7_19  and  N6_20 
REMARK       I    between atoms: N6_20  and  C8_22 
REMARK    7  A    between atoms: N8_24  and  C9_26 
REMARK    8  A    between atoms: C9_26  and  C10_27 
REMARK    9  A    between atoms: C10_27  and  N9_28 
ROOT
HETATM    1  N1  UNL     1      86.241 -29.918   4.946  1.00  0.00    -0.195 NA
HETATM    2  C1  UNL     1      85.994 -29.787   3.810  1.00  0.00     0.092 C 
HETATM    3  C2  UNL     1      85.667 -29.640   2.392  1.00  0.00     0.290 C 
ENDROOT
BRANCH   3   4
HETATM    4  N2  UNL     1      85.598 -28.253   2.019  1.00  0.00    -0.063 N 
ATOM      5  H23 UNL     1      86.526 -27.856   1.873  1.00  0.00     0.275 HD
ATOM      6  H22 UNL     1      85.228 -28.135   1.076  1.00  0.00     0.275 HD
ATOM      7  H21 UNL     1      85.064 -27.716   2.703  1.00  0.00     0.275 HD
ENDBRANCH   3   4
BRANCH   3   8
HETATM    8  C3  UNL     1      84.369 -30.377   2.111  1.00  0.00     0.067 C 
BRANCH   8   9
HETATM    9  C4  UNL     1      83.978 -30.275   0.662  1.00  0.00     0.126 C 
BRANCH   9  10
HETATM   10  N3  UNL     1      85.004 -30.880  -0.149  1.00  0.00    -0.354 N 
HETATM   11  C5  UNL     1      85.876 -30.178  -1.006  1.00  0.00     0.287 C 
HETATM   12  O1  UNL     1      85.817 -28.948  -1.117  1.00  0.00    -0.264 OA
ATOM     13  H3  UNL     1      85.107 -31.893  -0.100  1.00  0.00     0.162 HD
BRANCH  11  14
HETATM   14  C6  UNL     1      86.864 -30.913  -1.776  1.00  0.00     0.204 A 
HETATM   15  N4  UNL     1      88.078 -30.509  -2.200  1.00  0.00    -0.266 N 
HETATM   16  N5  UNL     1      88.655 -31.492  -2.869  1.00  0.00    -0.130 N 
ATOM     17  H4  UNL     1      88.486 -29.590  -2.031  1.00  0.00     0.189 HD
HETATM   18  C7  UNL     1      87.838 -32.559  -2.900  1.00  0.00     0.701 A 
ATOM     19  H5  UNL     1      89.580 -31.447  -3.297  1.00  0.00     0.205 HD
HETATM   20  N10 UNL     1      86.740 -32.186  -2.222  1.00  0.00    -0.168 N 
ATOM     21  H10 UNL     1      85.926 -32.780  -2.066  1.00  0.00     0.186 HD
BRANCH  18  22
HETATM   22  N6  UNL     1      88.060 -33.712  -3.466  1.00  0.00    -0.162 N 
HETATM   23  C8  UNL     1      88.883 -34.694  -2.871  1.00  0.00     0.202 C 
HETATM   24  N7  UNL     1      88.349 -35.419  -1.760  1.00  0.00    -0.063 NA
HETATM   25  N8  UNL     1      90.053 -34.923  -3.307  1.00  0.00    -0.362 N 
ATOM     26  H8  UNL     1      90.398 -34.384  -4.101  1.00  0.00     0.162 HD
ATOM     27  H6  UNL     1      87.624 -33.912  -4.366  1.00  0.00     0.187 HD
BRANCH  25  28
HETATM   28  C9  UNL     1      90.915 -35.926  -2.713  1.00  0.00     0.149 C 
BRANCH  28  29
HETATM   29  C10 UNL     1      92.344 -35.766  -3.186  1.00  0.00     0.249 C 
BRANCH  29  30
HETATM   30  N9  UNL     1      93.236 -36.388  -2.244  1.00  0.00    -0.078 N 
ATOM     31  H93 UNL     1      94.127 -35.896  -2.175  1.00  0.00     0.274 HD
ATOM     32  H92 UNL     1      92.926 -36.263  -1.279  1.00  0.00     0.274 HD
ATOM     33  H91 UNL     1      93.357 -37.372  -2.485  1.00  0.00     0.274 HD
ENDBRANCH  29  30
ENDBRANCH  28  29
ENDBRANCH  25  28
ENDBRANCH  18  22
ENDBRANCH  11  14
ENDBRANCH   9  10
ENDBRANCH   8   9
ENDBRANCH   3   8
TORSDOF 9
ENDMDL
