MODEL 1
REMARK VINA RESULT: -6.356797608      0.000      0.000
REMARK  7 active torsions:
REMARK  status: ('A' for Active; 'I' for Inactive)
REMARK    1  A    between atoms: N1_2  and  C2_4 
REMARK    2  A    between atoms: C2_4  and  C4_6 
REMARK       I    between atoms: C4_6  and  N2_8 
REMARK    3  A    between atoms: N2_8  and  C5_10 
REMARK    4  A    between atoms: C9_14  and  S1_15 
REMARK    5  A    between atoms: S1_15  and  N3_18 
REMARK    6  A    between atoms: N3_18  and  C10_20 
REMARK    7  A    between atoms: C16_29  and  O5_30 
ROOT
HETATM    1  C5  UNL     1      43.335  38.644  89.001  1.00  0.00     0.069 A 
HETATM    2  C6  UNL     1      43.159  38.790  87.653  1.00  0.00     0.040 A 
HETATM    3  C7  UNL     1      42.274  37.971  86.925  1.00  0.00    -0.036 A 
HETATM    4  C8  UNL     1      42.106  38.165  85.473  1.00  0.00     0.050 C 
HETATM    5  C9  UNL     1      41.563  36.999  87.561  1.00  0.00     0.088 A 
HETATM    6  C15 UNL     1      41.716  36.821  88.933  1.00  0.00     0.065 A 
HETATM    7  C16 UNL     1      42.580  37.630  89.609  1.00  0.00     0.096 A 
ENDROOT
BRANCH   5   8
HETATM    8  S1  UNL     1      40.447  35.944  86.665  1.00  0.00     0.265 S 
HETATM    9  O2  UNL     1      39.684  35.177  87.754  1.00  0.00    -0.200 OA
HETATM   10  O3  UNL     1      39.406  36.824  86.001  1.00  0.00    -0.200 OA
BRANCH   8  11
HETATM   11  N3  UNL     1      41.321  34.998  85.659  1.00  0.00    -0.258 N 
ATOM     12  H3  UNL     1      40.753  34.828  84.829  1.00  0.00     0.181 HD
BRANCH  11  13
HETATM   13  C10 UNL     1      42.386  34.410  85.501  1.00  0.00     0.187 A 
HETATM   14  O4  UNL     1      42.923  33.716  86.538  1.00  0.00    -0.218 OA
HETATM   15  N4  UNL     1      44.016  33.178  86.194  1.00  0.00    -0.263 N 
HETATM   16  C11 UNL     1      44.340  33.434  84.922  1.00  0.00     0.039 A 
ATOM     17  H4  UNL     1      44.588  32.610  86.819  1.00  0.00     0.194 HD
HETATM   18  C12 UNL     1      45.528  32.988  84.142  1.00  0.00     0.071 C 
HETATM   19  C13 UNL     1      43.278  34.237  84.469  1.00  0.00     0.016 A 
HETATM   20  C14 UNL     1      43.165  34.773  83.114  1.00  0.00     0.055 C 
ENDBRANCH  11  13
ENDBRANCH   8  11
ENDBRANCH   5   8
BRANCH   7  21
HETATM   21  O5  UNL     1      42.748  37.476  90.990  1.00  0.00    -0.354 OA
HETATM   22  C17 UNL     1      41.774  36.798  91.779  1.00  0.00     0.210 C 
ENDBRANCH   7  21
BRANCH   1  23
HETATM   23  N2  UNL     1      44.232  39.392  89.808  1.00  0.00    -0.323 N 
HETATM   24  C4  UNL     1      45.606  39.120  89.928  1.00  0.00     0.244 C 
HETATM   25  O1  UNL     1      46.193  38.210  89.341  1.00  0.00    -0.271 OA
ATOM     26  H2  UNL     1      43.855  40.180  90.334  1.00  0.00     0.169 HD
BRANCH  24  27
HETATM   27  C2  UNL     1      46.368  40.042  90.854  1.00  0.00     0.165 C 
HETATM   28  C3  UNL     1      45.798  39.831  92.246  1.00  0.00     0.042 C 
BRANCH  27  29
HETATM   29  N1  UNL     1      47.745  39.821  90.738  1.00  0.00    -0.414 N 
HETATM   30  C1  UNL     1      48.560  40.284  91.799  1.00  0.00     0.140 C 
ATOM     31  H1  UNL     1      48.144  39.348  89.927  1.00  0.00     0.153 HD
ENDBRANCH  27  29
ENDBRANCH  24  27
ENDBRANCH   1  23
TORSDOF 7
ENDMDL
MODEL 2
REMARK VINA RESULT: -6.233821373      1.672      1.925
REMARK  7 active torsions:
REMARK  status: ('A' for Active; 'I' for Inactive)
REMARK    1  A    between atoms: N1_2  and  C2_4 
REMARK    2  A    between atoms: C2_4  and  C4_6 
REMARK       I    between atoms: C4_6  and  N2_8 
REMARK    3  A    between atoms: N2_8  and  C5_10 
REMARK    4  A    between atoms: C9_14  and  S1_15 
REMARK    5  A    between atoms: S1_15  and  N3_18 
REMARK    6  A    between atoms: N3_18  and  C10_20 
REMARK    7  A    between atoms: C16_29  and  O5_30 
ROOT
HETATM    1  C5  UNL     1      42.805  38.006  88.545  1.00  0.00     0.069 A 
HETATM    2  C6  UNL     1      42.815  38.490  87.266  1.00  0.00     0.040 A 
HETATM    3  C7  UNL     1      41.953  37.985  86.273  1.00  0.00    -0.036 A 
HETATM    4  C8  UNL     1      41.988  38.539  84.907  1.00  0.00     0.050 C 
HETATM    5  C9  UNL     1      41.076  36.988  86.573  1.00  0.00     0.088 A 
HETATM    6  C15 UNL     1      41.037  36.472  87.864  1.00  0.00     0.065 A 
HETATM    7  C16 UNL     1      41.884  36.980  88.802  1.00  0.00     0.096 A 
ENDROOT
BRANCH   5   8
HETATM    8  S1  UNL     1      39.982  36.326  85.336  1.00  0.00     0.265 S 
HETATM    9  O2  UNL     1      38.998  35.450  86.123  1.00  0.00    -0.200 OA
HETATM   10  O3  UNL     1      39.147  37.468  84.794  1.00  0.00    -0.200 OA
BRANCH   8  11
HETATM   11  N3  UNL     1      40.875  35.515  84.234  1.00  0.00    -0.258 N 
ATOM     12  H3  UNL     1      40.280  35.345  83.424  1.00  0.00     0.181 HD
BRANCH  11  13
HETATM   13  C10 UNL     1      41.975  35.029  83.989  1.00  0.00     0.187 A 
HETATM   14  O4  UNL     1      42.541  35.240  82.772  1.00  0.00    -0.218 OA
HETATM   15  N4  UNL     1      43.667  34.665  82.699  1.00  0.00    -0.263 N 
HETATM   16  C11 UNL     1      43.989  34.017  83.824  1.00  0.00     0.039 A 
ATOM     17  H4  UNL     1      44.263  34.694  81.873  1.00  0.00     0.194 HD
HETATM   18  C12 UNL     1      45.213  33.230  84.142  1.00  0.00     0.071 C 
HETATM   19  C13 UNL     1      42.887  34.253  84.666  1.00  0.00     0.016 A 
HETATM   20  C14 UNL     1      42.768  33.753  86.034  1.00  0.00     0.055 C 
ENDBRANCH  11  13
ENDBRANCH   8  11
ENDBRANCH   5   8
BRANCH   7  21
HETATM   21  O5  UNL     1      41.862  36.483  90.110  1.00  0.00    -0.354 OA
HETATM   22  C17 UNL     1      40.699  36.605  90.925  1.00  0.00     0.210 C 
ENDBRANCH   7  21
BRANCH   1  23
HETATM   23  N2  UNL     1      43.664  38.423  89.597  1.00  0.00    -0.323 N 
HETATM   24  C4  UNL     1      44.993  37.994  89.752  1.00  0.00     0.244 C 
HETATM   25  O1  UNL     1      45.573  37.219  88.989  1.00  0.00    -0.271 OA
ATOM     26  H2  UNL     1      43.290  39.076  90.285  1.00  0.00     0.169 HD
BRANCH  24  27
HETATM   27  C2  UNL     1      45.717  38.559  90.954  1.00  0.00     0.165 C 
HETATM   28  C3  UNL     1      46.796  39.484  90.419  1.00  0.00     0.042 C 
BRANCH  27  29
HETATM   29  N1  UNL     1      44.807  39.156  91.835  1.00  0.00    -0.414 N 
HETATM   30  C1  UNL     1      45.252  40.305  92.532  1.00  0.00     0.140 C 
ATOM     31  H1  UNL     1      43.869  38.781  91.969  1.00  0.00     0.153 HD
ENDBRANCH  27  29
ENDBRANCH  24  27
ENDBRANCH   1  23
TORSDOF 7
ENDMDL
MODEL 3
REMARK VINA RESULT: -6.195942782      3.925      8.727
REMARK  7 active torsions:
REMARK  status: ('A' for Active; 'I' for Inactive)
REMARK    1  A    between atoms: N1_2  and  C2_4 
REMARK    2  A    between atoms: C2_4  and  C4_6 
REMARK       I    between atoms: C4_6  and  N2_8 
REMARK    3  A    between atoms: N2_8  and  C5_10 
REMARK    4  A    between atoms: C9_14  and  S1_15 
REMARK    5  A    between atoms: S1_15  and  N3_18 
REMARK    6  A    between atoms: N3_18  and  C10_20 
REMARK    7  A    between atoms: C16_29  and  O5_30 
ROOT
HETATM    1  C5  UNL     1      40.711  35.994  82.201  1.00  0.00     0.069 A 
HETATM    2  C6  UNL     1      42.014  35.580  82.188  1.00  0.00     0.040 A 
HETATM    3  C7  UNL     1      42.618  34.991  83.316  1.00  0.00    -0.036 A 
HETATM    4  C8  UNL     1      44.024  34.550  83.261  1.00  0.00     0.050 C 
HETATM    5  C9  UNL     1      41.903  34.819  84.462  1.00  0.00     0.088 A 
HETATM    6  C15 UNL     1      40.574  35.228  84.512  1.00  0.00     0.065 A 
HETATM    7  C16 UNL     1      40.018  35.795  83.404  1.00  0.00     0.096 A 
ENDROOT
BRANCH   5   8
HETATM    8  S1  UNL     1      42.644  34.087  85.903  1.00  0.00     0.265 S 
HETATM    9  O2  UNL     1      41.478  33.400  86.629  1.00  0.00    -0.200 OA
HETATM   10  O3  UNL     1      43.541  32.956  85.442  1.00  0.00    -0.200 OA
BRANCH   8  11
HETATM   11  N3  UNL     1      43.376  35.265  86.767  1.00  0.00    -0.258 N 
ATOM     12  H3  UNL     1      44.371  35.046  86.800  1.00  0.00     0.181 HD
BRANCH  11  13
HETATM   13  C10 UNL     1      43.209  36.309  87.392  1.00  0.00     0.187 A 
HETATM   14  O4  UNL     1      41.997  36.920  87.353  1.00  0.00    -0.218 OA
HETATM   15  N4  UNL     1      42.010  37.977  88.052  1.00  0.00    -0.263 N 
HETATM   16  C11 UNL     1      43.196  38.199  88.629  1.00  0.00     0.039 A 
ATOM     17  H4  UNL     1      41.204  38.591  88.162  1.00  0.00     0.194 HD
HETATM   18  C12 UNL     1      43.617  39.316  89.520  1.00  0.00     0.071 C 
HETATM   19  C13 UNL     1      43.978  37.112  88.199  1.00  0.00     0.016 A 
HETATM   20  C14 UNL     1      45.374  36.896  88.578  1.00  0.00     0.055 C 
ENDBRANCH  11  13
ENDBRANCH   8  11
ENDBRANCH   5   8
BRANCH   7  21
HETATM   21  O5  UNL     1      38.682  36.210  83.425  1.00  0.00    -0.354 OA
HETATM   22  C17 UNL     1      37.619  35.266  83.519  1.00  0.00     0.210 C 
ENDBRANCH   7  21
BRANCH   1  23
HETATM   23  N2  UNL     1      40.032  36.634  81.130  1.00  0.00    -0.323 N 
HETATM   24  C4  UNL     1      39.275  35.960  80.156  1.00  0.00     0.244 C 
HETATM   25  O1  UNL     1      39.102  34.741  80.123  1.00  0.00    -0.271 OA
ATOM     26  H2  UNL     1      40.099  37.650  81.063  1.00  0.00     0.169 HD
BRANCH  24  27
HETATM   27  C2  UNL     1      38.650  36.845  79.099  1.00  0.00     0.165 C 
HETATM   28  C3  UNL     1      38.335  38.170  79.771  1.00  0.00     0.042 C 
BRANCH  27  29
HETATM   29  N1  UNL     1      39.485  36.932  77.979  1.00  0.00    -0.414 N 
HETATM   30  C1  UNL     1      39.112  36.178  76.841  1.00  0.00     0.140 C 
ATOM     31  H1  UNL     1      40.324  37.512  77.983  1.00  0.00     0.153 HD
ENDBRANCH  27  29
ENDBRANCH  24  27
ENDBRANCH   1  23
TORSDOF 7
ENDMDL
MODEL 4
REMARK VINA RESULT: -6.053359750      3.758      8.378
REMARK  7 active torsions:
REMARK  status: ('A' for Active; 'I' for Inactive)
REMARK    1  A    between atoms: N1_2  and  C2_4 
REMARK    2  A    between atoms: C2_4  and  C4_6 
REMARK       I    between atoms: C4_6  and  N2_8 
REMARK    3  A    between atoms: N2_8  and  C5_10 
REMARK    4  A    between atoms: C9_14  and  S1_15 
REMARK    5  A    between atoms: S1_15  and  N3_18 
REMARK    6  A    between atoms: N3_18  and  C10_20 
REMARK    7  A    between atoms: C16_29  and  O5_30 
ROOT
HETATM    1  C5  UNL     1      40.445  35.720  82.461  1.00  0.00     0.069 A 
HETATM    2  C6  UNL     1      41.783  35.443  82.394  1.00  0.00     0.040 A 
HETATM    3  C7  UNL     1      42.495  34.942  83.501  1.00  0.00    -0.036 A 
HETATM    4  C8  UNL     1      43.935  34.649  83.387  1.00  0.00     0.050 C 
HETATM    5  C9  UNL     1      41.854  34.719  84.681  1.00  0.00     0.088 A 
HETATM    6  C15 UNL     1      40.493  34.989  84.787  1.00  0.00     0.065 A 
HETATM    7  C16 UNL     1      39.832  35.473  83.698  1.00  0.00     0.096 A 
ENDROOT
BRANCH   5   8
HETATM    8  S1  UNL     1      42.732  34.097  86.098  1.00  0.00     0.265 S 
HETATM    9  O2  UNL     1      41.654  33.400  86.942  1.00  0.00    -0.200 OA
HETATM   10  O3  UNL     1      43.644  32.983  85.627  1.00  0.00    -0.200 OA
BRANCH   8  11
HETATM   11  N3  UNL     1      43.468  35.350  86.845  1.00  0.00    -0.258 N 
ATOM     12  H3  UNL     1      44.472  35.178  86.810  1.00  0.00     0.181 HD
BRANCH  11  13
HETATM   13  C10 UNL     1      43.298  36.415  87.431  1.00  0.00     0.187 A 
HETATM   14  O4  UNL     1      42.099  37.045  87.332  1.00  0.00    -0.218 OA
HETATM   15  N4  UNL     1      42.106  38.122  87.997  1.00  0.00    -0.263 N 
HETATM   16  C11 UNL     1      43.276  38.344  88.608  1.00  0.00     0.039 A 
ATOM     17  H4  UNL     1      41.307  38.753  88.060  1.00  0.00     0.194 HD
HETATM   18  C12 UNL     1      43.685  39.481  89.478  1.00  0.00     0.071 C 
HETATM   19  C13 UNL     1      44.053  37.231  88.240  1.00  0.00     0.016 A 
HETATM   20  C14 UNL     1      45.430  37.004  88.673  1.00  0.00     0.055 C 
ENDBRANCH  11  13
ENDBRANCH   8  11
ENDBRANCH   5   8
BRANCH   7  21
HETATM   21  O5  UNL     1      38.462  35.747  83.775  1.00  0.00    -0.354 OA
HETATM   22  C17 UNL     1      37.510  34.701  83.953  1.00  0.00     0.210 C 
ENDBRANCH   7  21
BRANCH   1  23
HETATM   23  N2  UNL     1      39.656  36.264  81.413  1.00  0.00    -0.323 N 
HETATM   24  C4  UNL     1      39.290  37.618  81.318  1.00  0.00     0.244 C 
HETATM   25  O1  UNL     1      39.620  38.491  82.122  1.00  0.00    -0.271 OA
ATOM     26  H2  UNL     1      39.334  35.631  80.682  1.00  0.00     0.169 HD
BRANCH  24  27
HETATM   27  C2  UNL     1      38.435  37.972  80.121  1.00  0.00     0.165 C 
HETATM   28  C3  UNL     1      38.444  39.487  80.012  1.00  0.00     0.042 C 
BRANCH  27  29
HETATM   29  N1  UNL     1      38.884  37.294  78.982  1.00  0.00    -0.414 N 
HETATM   30  C1  UNL     1      38.472  37.804  77.728  1.00  0.00     0.140 C 
ATOM     31  H1  UNL     1      39.481  36.470  79.052  1.00  0.00     0.153 HD
ENDBRANCH  27  29
ENDBRANCH  24  27
ENDBRANCH   1  23
TORSDOF 7
ENDMDL
MODEL 5
REMARK VINA RESULT: -6.039976115      3.943      8.766
REMARK  7 active torsions:
REMARK  status: ('A' for Active; 'I' for Inactive)
REMARK    1  A    between atoms: N1_2  and  C2_4 
REMARK    2  A    between atoms: C2_4  and  C4_6 
REMARK       I    between atoms: C4_6  and  N2_8 
REMARK    3  A    between atoms: N2_8  and  C5_10 
REMARK    4  A    between atoms: C9_14  and  S1_15 
REMARK    5  A    between atoms: S1_15  and  N3_18 
REMARK    6  A    between atoms: N3_18  and  C10_20 
REMARK    7  A    between atoms: C16_29  and  O5_30 
ROOT
HETATM    1  C5  UNL     1      40.614  35.977  82.064  1.00  0.00     0.069 A 
HETATM    2  C6  UNL     1      41.935  35.625  82.110  1.00  0.00     0.040 A 
HETATM    3  C7  UNL     1      42.512  35.049  83.258  1.00  0.00    -0.036 A 
HETATM    4  C8  UNL     1      43.938  34.676  83.266  1.00  0.00     0.050 C 
HETATM    5  C9  UNL     1      41.752  34.827  84.365  1.00  0.00     0.088 A 
HETATM    6  C15 UNL     1      40.404  35.172  84.355  1.00  0.00     0.065 A 
HETATM    7  C16 UNL     1      39.875  35.728  83.229  1.00  0.00     0.096 A 
ENDROOT
BRANCH   5   8
HETATM    8  S1  UNL     1      42.457  34.110  85.833  1.00  0.00     0.265 S 
HETATM    9  O2  UNL     1      41.268  33.456  86.551  1.00  0.00    -0.200 OA
HETATM   10  O3  UNL     1      43.343  32.957  85.408  1.00  0.00    -0.200 OA
BRANCH   8  11
HETATM   11  N3  UNL     1      43.193  35.293  86.686  1.00  0.00    -0.258 N 
ATOM     12  H3  UNL     1      44.175  35.034  86.783  1.00  0.00     0.181 HD
BRANCH  11  13
HETATM   13  C10 UNL     1      43.040  36.368  87.258  1.00  0.00     0.187 A 
HETATM   14  O4  UNL     1      43.244  36.444  88.599  1.00  0.00    -0.218 OA
HETATM   15  N4  UNL     1      43.040  37.623  89.014  1.00  0.00    -0.263 N 
HETATM   16  C11 UNL     1      42.684  38.461  88.033  1.00  0.00     0.039 A 
ATOM     17  H4  UNL     1      43.136  37.903  89.989  1.00  0.00     0.194 HD
HETATM   18  C12 UNL     1      42.364  39.914  88.104  1.00  0.00     0.071 C 
HETATM   19  C13 UNL     1      42.684  37.644  86.888  1.00  0.00     0.016 A 
HETATM   20  C14 UNL     1      42.366  38.109  85.540  1.00  0.00     0.055 C 
ENDBRANCH  11  13
ENDBRANCH   8  11
ENDBRANCH   5   8
BRANCH   7  21
HETATM   21  O5  UNL     1      38.521  36.079  83.190  1.00  0.00    -0.354 OA
HETATM   22  C17 UNL     1      37.501  35.086  83.240  1.00  0.00     0.210 C 
ENDBRANCH   7  21
BRANCH   1  23
HETATM   23  N2  UNL     1      39.958  36.599  80.968  1.00  0.00    -0.323 N 
HETATM   24  C4  UNL     1      39.283  35.905  79.950  1.00  0.00     0.244 C 
HETATM   25  O1  UNL     1      39.171  34.679  79.894  1.00  0.00    -0.271 OA
ATOM     26  H2  UNL     1      39.978  37.618  80.918  1.00  0.00     0.169 HD
BRANCH  24  27
HETATM   27  C2  UNL     1      38.667  36.773  78.875  1.00  0.00     0.165 C 
HETATM   28  C3  UNL     1      38.226  38.059  79.553  1.00  0.00     0.042 C 
BRANCH  27  29
HETATM   29  N1  UNL     1      39.562  36.942  77.812  1.00  0.00    -0.414 N 
HETATM   30  C1  UNL     1      39.268  36.250  76.612  1.00  0.00     0.140 C 
ATOM     31  H1  UNL     1      40.387  37.535  77.897  1.00  0.00     0.153 HD
ENDBRANCH  27  29
ENDBRANCH  24  27
ENDBRANCH   1  23
TORSDOF 7
ENDMDL
