MODEL 1
REMARK VINA RESULT: -9.102077931      0.000      0.000
REMARK  12 active torsions:
REMARK  status: ('A' for Active; 'I' for Inactive)
REMARK    1  A    between atoms: C1_2  and  C2_3 
REMARK    2  A    between atoms: C1_2  and  O6_16 
REMARK    3  A    between atoms: C2_3  and  C3_4 
REMARK    4  A    between atoms: C4_6  and  C5_7 
REMARK    5  A    between atoms: C5_7  and  O3_8 
REMARK    6  A    between atoms: C8_13  and  O5_14 
REMARK    7  A    between atoms: O6_16  and  C9_17 
REMARK    8  A    between atoms: C9_17  and  C10_18 
REMARK    9  A    between atoms: C10_18  and  O8_20 
REMARK   10  A    between atoms: O8_20  and  C11_21 
REMARK   11  A    between atoms: C15_28  and  N1_29 
REMARK   12  A    between atoms: N3_39  and  O12_41 
ROOT
HETATM    1  C11 UNL     1     -18.950   5.974  60.225  1.00  0.00     0.191 C 
HETATM    2  C12 UNL     1     -17.845   6.245  60.903  1.00  0.00     0.063 C 
HETATM    3  C13 UNL     1     -16.659   6.836  60.270  1.00  0.00     0.206 C 
HETATM    4  O9  UNL     1     -16.844   7.425  59.070  1.00  0.00    -0.324 OA
HETATM    5  C14 UNL     1     -18.059   7.382  58.473  1.00  0.00     0.336 C 
HETATM    6  O10 UNL     1     -18.879   6.297  58.871  1.00  0.00    -0.262 OA
HETATM    7  O11 UNL     1     -18.767   8.531  58.813  1.00  0.00    -0.290 OA
HETATM    8  C15 UNL     1     -18.751   9.411  57.772  1.00  0.00     0.369 C 
HETATM    9  C20 UNL     1     -18.751   8.540  56.549  1.00  0.00     0.127 C 
HETATM   10  C21 UNL     1     -17.881   7.423  57.002  1.00  0.00     0.106 C 
HETATM   11  N3  UNL     1     -17.166   6.707  56.222  1.00  0.00    -0.269 N 
ATOM     12  H3  UNL     1     -17.205   6.923  55.226  1.00  0.00     0.193 HD
ENDROOT
BRANCH   1  13
HETATM   13  O8  UNL     1     -20.095   5.419  60.770  1.00  0.00    -0.254 OA
BRANCH  13  14
HETATM   14  C10 UNL     1     -20.159   4.828  62.006  1.00  0.00     0.290 C 
HETATM   15  O7  UNL     1     -20.408   5.570  62.993  1.00  0.00    -0.262 OA
BRANCH  14  16
HETATM   16  C9  UNL     1     -19.955   3.376  62.241  1.00  0.00     0.290 C 
BRANCH  16  17
HETATM   17  O6  UNL     1     -21.198   2.673  62.160  1.00  0.00    -0.311 OA
BRANCH  17  18
HETATM   18  C1  UNL     1     -21.295   1.329  62.466  1.00  0.00     0.265 C 
HETATM   19  O1  UNL     1     -20.997   0.524  61.534  1.00  0.00    -0.265 OA
BRANCH  18  20
HETATM   20  C2  UNL     1     -21.721   0.837  63.804  1.00  0.00     0.179 C 
BRANCH  20  21
HETATM   21  C3  UNL     1     -22.968   0.064  63.753  1.00  0.00     0.099 A 
HETATM   22  O2  UNL     1     -22.980  -1.216  63.507  1.00  0.00    -0.314 OA
HETATM   23  C4  UNL     1     -24.124  -1.900  63.464  1.00  0.00     0.080 A 
HETATM   24  C6  UNL     1     -25.348  -1.310  63.672  1.00  0.00     0.092 A 
HETATM   25  C7  UNL     1     -25.378   0.040  63.934  1.00  0.00     0.209 A 
HETATM   26  O4  UNL     1     -26.438   0.669  64.137  1.00  0.00    -0.285 OA
HETATM   27  C8  UNL     1     -24.166   0.702  63.968  1.00  0.00     0.146 A 
BRANCH  23  28
HETATM   28  C5  UNL     1     -24.071  -3.339  63.183  1.00  0.00     0.229 C 
BRANCH  28  29
HETATM   29  O3  UNL     1     -23.295  -3.608  62.051  1.00  0.00    -0.394 OA
ATOM     30  H3  UNL     1     -23.706  -4.262  61.497  1.00  0.00     0.209 HD
ENDBRANCH  28  29
ENDBRANCH  23  28
BRANCH  27  31
HETATM   31  O5  UNL     1     -24.194   2.067  64.232  1.00  0.00    -0.355 OA
ATOM     32  H5  UNL     1     -24.070   2.693  63.528  1.00  0.00     0.218 HD
ENDBRANCH  27  31
ENDBRANCH  20  21
ENDBRANCH  18  20
ENDBRANCH  17  18
ENDBRANCH  16  17
ENDBRANCH  14  16
ENDBRANCH  13  14
ENDBRANCH   1  13
BRANCH   8  33
HETATM   33  N1  UNL     1     -17.636  10.333  57.805  1.00  0.00     0.120 N 
HETATM   34  C16 UNL     1     -17.652  11.266  56.722  1.00  0.00     0.303 C 
HETATM   35  C17 UNL     1     -16.924  12.518  57.169  1.00  0.00     0.262 C 
HETATM   36  N2  UNL     1     -17.772  13.192  58.141  1.00  0.00    -0.072 N 
HETATM   37  C18 UNL     1     -18.325  12.287  59.100  1.00  0.00     0.262 C 
ATOM     38  H22 UNL     1     -17.272  13.954  58.600  1.00  0.00     0.277 HD
ATOM     39  H21 UNL     1     -18.504  13.732  57.680  1.00  0.00     0.277 HD
HETATM   40  C19 UNL     1     -17.573  10.973  59.099  1.00  0.00     0.303 C 
ENDBRANCH   8  33
BRANCH  11  41
HETATM   41  O12 UNL     1     -16.360   5.683  56.602  1.00  0.00    -0.290 OA
ATOM     42  H12 UNL     1     -15.685   5.281  56.068  1.00  0.00     0.244 HD
ENDBRANCH  11  41
TORSDOF 12
ENDMDL
MODEL 2
REMARK VINA RESULT: -8.835543835      1.122      2.335
REMARK  12 active torsions:
REMARK  status: ('A' for Active; 'I' for Inactive)
REMARK    1  A    between atoms: C1_2  and  C2_3 
REMARK    2  A    between atoms: C1_2  and  O6_16 
REMARK    3  A    between atoms: C2_3  and  C3_4 
REMARK    4  A    between atoms: C4_6  and  C5_7 
REMARK    5  A    between atoms: C5_7  and  O3_8 
REMARK    6  A    between atoms: C8_13  and  O5_14 
REMARK    7  A    between atoms: O6_16  and  C9_17 
REMARK    8  A    between atoms: C9_17  and  C10_18 
REMARK    9  A    between atoms: C10_18  and  O8_20 
REMARK   10  A    between atoms: O8_20  and  C11_21 
REMARK   11  A    between atoms: C15_28  and  N1_29 
REMARK   12  A    between atoms: N3_39  and  O12_41 
ROOT
HETATM    1  C11 UNL     1     -18.862   5.962  60.231  1.00  0.00     0.191 C 
HETATM    2  C12 UNL     1     -17.753   6.306  60.869  1.00  0.00     0.063 C 
HETATM    3  C13 UNL     1     -16.632   6.971  60.193  1.00  0.00     0.206 C 
HETATM    4  O9  UNL     1     -16.898   7.544  59.001  1.00  0.00    -0.324 OA
HETATM    5  C14 UNL     1     -18.129   7.421  58.449  1.00  0.00     0.336 C 
HETATM    6  O10 UNL     1     -18.862   6.287  58.876  1.00  0.00    -0.262 OA
HETATM    7  O11 UNL     1     -18.897   8.523  58.816  1.00  0.00    -0.290 OA
HETATM    8  C15 UNL     1     -18.976   9.400  57.775  1.00  0.00     0.369 C 
HETATM    9  C20 UNL     1     -18.964   8.529  56.552  1.00  0.00     0.127 C 
HETATM   10  C21 UNL     1     -18.007   7.472  56.973  1.00  0.00     0.106 C 
HETATM   11  N3  UNL     1     -17.277   6.802  56.167  1.00  0.00    -0.269 N 
ATOM     12  H3  UNL     1     -17.366   7.013  55.173  1.00  0.00     0.193 HD
ENDROOT
BRANCH   1  13
HETATM   13  O8  UNL     1     -19.948   5.335  60.818  1.00  0.00    -0.254 OA
BRANCH  13  14
HETATM   14  C10 UNL     1     -19.957   4.826  62.092  1.00  0.00     0.290 C 
HETATM   15  O7  UNL     1     -20.341   5.588  63.019  1.00  0.00    -0.262 OA
BRANCH  14  16
HETATM   16  C9  UNL     1     -19.546   3.441  62.432  1.00  0.00     0.290 C 
BRANCH  16  17
HETATM   17  O6  UNL     1     -19.690   2.579  61.300  1.00  0.00    -0.311 OA
BRANCH  17  18
HETATM   18  C1  UNL     1     -20.489   1.453  61.339  1.00  0.00     0.265 C 
HETATM   19  O1  UNL     1     -21.028   1.115  60.243  1.00  0.00    -0.265 OA
BRANCH  18  20
HETATM   20  C2  UNL     1     -20.716   0.670  62.584  1.00  0.00     0.179 C 
BRANCH  20  21
HETATM   21  C3  UNL     1     -22.014   0.957  63.206  1.00  0.00     0.099 A 
HETATM   22  O2  UNL     1     -22.259   2.087  63.808  1.00  0.00    -0.314 OA
HETATM   23  C4  UNL     1     -23.445   2.329  64.367  1.00  0.00     0.080 A 
HETATM   24  C6  UNL     1     -24.473   1.416  64.348  1.00  0.00     0.092 A 
HETATM   25  C7  UNL     1     -24.254   0.210  63.722  1.00  0.00     0.209 A 
HETATM   26  O4  UNL     1     -25.122  -0.686  63.650  1.00  0.00    -0.285 OA
HETATM   27  C8  UNL     1     -23.008   0.010  63.158  1.00  0.00     0.146 A 
BRANCH  23  28
HETATM   28  C5  UNL     1     -23.658   3.620  65.029  1.00  0.00     0.229 C 
BRANCH  28  29
HETATM   29  O3  UNL     1     -24.834   3.617  65.786  1.00  0.00    -0.394 OA
ATOM     30  H3  UNL     1     -25.595   3.441  65.243  1.00  0.00     0.209 HD
ENDBRANCH  28  29
ENDBRANCH  23  28
BRANCH  27  31
HETATM   31  O5  UNL     1     -22.785  -1.208  62.526  1.00  0.00    -0.355 OA
ATOM     32  H5  UNL     1     -23.282  -1.443  61.751  1.00  0.00     0.218 HD
ENDBRANCH  27  31
ENDBRANCH  20  21
ENDBRANCH  18  20
ENDBRANCH  17  18
ENDBRANCH  16  17
ENDBRANCH  14  16
ENDBRANCH  13  14
ENDBRANCH   1  13
BRANCH   8  33
HETATM   33  N1  UNL     1     -17.922  10.392  57.768  1.00  0.00     0.120 N 
HETATM   34  C16 UNL     1     -17.959  11.236  56.614  1.00  0.00     0.303 C 
HETATM   35  C17 UNL     1     -17.327  12.564  56.982  1.00  0.00     0.262 C 
HETATM   36  N2  UNL     1     -18.249  13.254  57.871  1.00  0.00    -0.072 N 
HETATM   37  C18 UNL     1     -18.777  12.391  58.882  1.00  0.00     0.262 C 
ATOM     38  H22 UNL     1     -17.814  14.080  58.283  1.00  0.00     0.277 HD
ATOM     39  H21 UNL     1     -18.997  13.707  57.347  1.00  0.00     0.277 HD
HETATM   40  C19 UNL     1     -17.945  11.133  59.009  1.00  0.00     0.303 C 
ENDBRANCH   8  33
BRANCH  11  41
HETATM   41  O12 UNL     1     -16.393   5.833  56.516  1.00  0.00    -0.290 OA
ATOM     42  H12 UNL     1     -16.561   5.120  57.121  1.00  0.00     0.244 HD
ENDBRANCH  11  41
TORSDOF 12
ENDMDL
MODEL 3
REMARK VINA RESULT: -8.615934811      1.056      2.241
REMARK  12 active torsions:
REMARK  status: ('A' for Active; 'I' for Inactive)
REMARK    1  A    between atoms: C1_2  and  C2_3 
REMARK    2  A    between atoms: C1_2  and  O6_16 
REMARK    3  A    between atoms: C2_3  and  C3_4 
REMARK    4  A    between atoms: C4_6  and  C5_7 
REMARK    5  A    between atoms: C5_7  and  O3_8 
REMARK    6  A    between atoms: C8_13  and  O5_14 
REMARK    7  A    between atoms: O6_16  and  C9_17 
REMARK    8  A    between atoms: C9_17  and  C10_18 
REMARK    9  A    between atoms: C10_18  and  O8_20 
REMARK   10  A    between atoms: O8_20  and  C11_21 
REMARK   11  A    between atoms: C15_28  and  N1_29 
REMARK   12  A    between atoms: N3_39  and  O12_41 
ROOT
HETATM    1  C11 UNL     1     -19.242   5.710  60.415  1.00  0.00     0.191 C 
HETATM    2  C12 UNL     1     -18.190   5.993  61.168  1.00  0.00     0.063 C 
HETATM    3  C13 UNL     1     -16.985   6.634  60.626  1.00  0.00     0.206 C 
HETATM    4  O9  UNL     1     -17.112   7.250  59.433  1.00  0.00    -0.324 OA
HETATM    5  C14 UNL     1     -18.286   7.189  58.760  1.00  0.00     0.336 C 
HETATM    6  O10 UNL     1     -19.096   6.072  59.077  1.00  0.00    -0.262 OA
HETATM    7  O11 UNL     1     -19.047   8.309  59.084  1.00  0.00    -0.290 OA
HETATM    8  C15 UNL     1     -18.994   9.217  58.069  1.00  0.00     0.369 C 
HETATM    9  C20 UNL     1     -18.891   8.380  56.826  1.00  0.00     0.127 C 
HETATM   10  C21 UNL     1     -18.018   7.277  57.304  1.00  0.00     0.106 C 
HETATM   11  N3  UNL     1     -17.235   6.602  56.553  1.00  0.00    -0.269 N 
ATOM     12  H3  UNL     1     -17.219   6.844  55.562  1.00  0.00     0.193 HD
ENDROOT
BRANCH   1  13
HETATM   13  O8  UNL     1     -20.401   5.108  60.873  1.00  0.00    -0.254 OA
BRANCH  13  14
HETATM   14  C10 UNL     1     -20.547   4.546  62.116  1.00  0.00     0.290 C 
HETATM   15  O7  UNL     1     -20.767   5.323  63.082  1.00  0.00    -0.262 OA
BRANCH  14  16
HETATM   16  C9  UNL     1     -20.461   3.088  62.380  1.00  0.00     0.290 C 
BRANCH  16  17
HETATM   17  O6  UNL     1     -21.755   2.483  62.295  1.00  0.00    -0.311 OA
BRANCH  17  18
HETATM   18  C1  UNL     1     -22.292   1.762  63.344  1.00  0.00     0.265 C 
HETATM   19  O1  UNL     1     -22.548   2.419  64.397  1.00  0.00    -0.265 OA
BRANCH  18  20
HETATM   20  C2  UNL     1     -22.560   0.301  63.262  1.00  0.00     0.179 C 
BRANCH  20  21
HETATM   21  C3  UNL     1     -23.924  -0.049  63.680  1.00  0.00     0.099 A 
HETATM   22  O2  UNL     1     -24.839   0.857  63.884  1.00  0.00    -0.314 OA
HETATM   23  C4  UNL     1     -26.072   0.519  64.263  1.00  0.00     0.080 A 
HETATM   24  C6  UNL     1     -26.454  -0.786  64.462  1.00  0.00     0.092 A 
HETATM   25  C7  UNL     1     -25.516  -1.772  64.258  1.00  0.00     0.209 A 
HETATM   26  O4  UNL     1     -25.763  -2.987  64.411  1.00  0.00    -0.285 OA
HETATM   27  C8  UNL     1     -24.254  -1.369  63.865  1.00  0.00     0.146 A 
BRANCH  23  28
HETATM   28  C5  UNL     1     -27.057   1.585  64.476  1.00  0.00     0.229 C 
BRANCH  28  29
HETATM   29  O3  UNL     1     -26.661   2.446  65.504  1.00  0.00    -0.394 OA
ATOM     30  H3  UNL     1     -25.723   2.407  65.647  1.00  0.00     0.209 HD
ENDBRANCH  28  29
ENDBRANCH  23  28
BRANCH  27  31
HETATM   31  O5  UNL     1     -23.305  -2.364  63.658  1.00  0.00    -0.355 OA
ATOM     32  H5  UNL     1     -22.985  -2.879  64.389  1.00  0.00     0.218 HD
ENDBRANCH  27  31
ENDBRANCH  20  21
ENDBRANCH  18  20
ENDBRANCH  17  18
ENDBRANCH  16  17
ENDBRANCH  14  16
ENDBRANCH  13  14
ENDBRANCH   1  13
BRANCH   8  33
HETATM   33  N1  UNL     1     -17.910  10.168  58.196  1.00  0.00     0.120 N 
HETATM   34  C16 UNL     1     -17.653  10.884  56.985  1.00  0.00     0.303 C 
HETATM   35  C17 UNL     1     -17.043  12.223  57.351  1.00  0.00     0.262 C 
HETATM   36  N2  UNL     1     -18.095  13.034  57.945  1.00  0.00    -0.072 N 
HETATM   37  C18 UNL     1     -18.874  12.302  58.895  1.00  0.00     0.262 C 
ATOM     38  H22 UNL     1     -17.714  13.885  58.359  1.00  0.00     0.277 HD
ATOM     39  H21 UNL     1     -18.687  13.452  57.228  1.00  0.00     0.277 HD
HETATM   40  C19 UNL     1     -18.158  11.038  59.323  1.00  0.00     0.303 C 
ENDBRANCH   8  33
BRANCH  11  41
HETATM   41  O12 UNL     1     -16.424   5.592  56.956  1.00  0.00    -0.290 OA
ATOM     42  H12 UNL     1     -15.995   4.964  56.387  1.00  0.00     0.244 HD
ENDBRANCH  11  41
TORSDOF 12
ENDMDL
MODEL 4
REMARK VINA RESULT: -8.599600944      5.514      7.949
REMARK  12 active torsions:
REMARK  status: ('A' for Active; 'I' for Inactive)
REMARK    1  A    between atoms: C1_2  and  C2_3 
REMARK    2  A    between atoms: C1_2  and  O6_16 
REMARK    3  A    between atoms: C2_3  and  C3_4 
REMARK    4  A    between atoms: C4_6  and  C5_7 
REMARK    5  A    between atoms: C5_7  and  O3_8 
REMARK    6  A    between atoms: C8_13  and  O5_14 
REMARK    7  A    between atoms: O6_16  and  C9_17 
REMARK    8  A    between atoms: C9_17  and  C10_18 
REMARK    9  A    between atoms: C10_18  and  O8_20 
REMARK   10  A    between atoms: O8_20  and  C11_21 
REMARK   11  A    between atoms: C15_28  and  N1_29 
REMARK   12  A    between atoms: N3_39  and  O12_41 
ROOT
HETATM    1  C11 UNL     1     -22.652  -0.139  62.880  1.00  0.00     0.191 C 
HETATM    2  C12 UNL     1     -22.280  -0.404  64.123  1.00  0.00     0.063 C 
HETATM    3  C13 UNL     1     -21.207   0.339  64.798  1.00  0.00     0.206 C 
HETATM    4  O9  UNL     1     -20.859   1.525  64.256  1.00  0.00    -0.324 OA
HETATM    5  C14 UNL     1     -21.434   1.938  63.101  1.00  0.00     0.336 C 
HETATM    6  O10 UNL     1     -21.937   0.898  62.282  1.00  0.00    -0.262 OA
HETATM    7  O11 UNL     1     -22.531   2.737  63.408  1.00  0.00    -0.290 OA
HETATM    8  C15 UNL     1     -22.213   4.051  63.230  1.00  0.00     0.369 C 
HETATM    9  C20 UNL     1     -21.245   4.047  62.082  1.00  0.00     0.127 C 
HETATM   10  C21 UNL     1     -20.482   2.804  62.365  1.00  0.00     0.106 C 
HETATM   11  N3  UNL     1     -19.269   2.609  62.014  1.00  0.00    -0.269 N 
ATOM     12  H3  UNL     1     -18.806   3.361  61.504  1.00  0.00     0.193 HD
ENDROOT
BRANCH   1  13
HETATM   13  O8  UNL     1     -23.654  -0.806  62.197  1.00  0.00    -0.254 OA
BRANCH  13  14
HETATM   14  C10 UNL     1     -24.192  -2.007  62.583  1.00  0.00     0.290 C 
HETATM   15  O7  UNL     1     -23.571  -3.053  62.256  1.00  0.00    -0.262 OA
BRANCH  14  16
HETATM   16  C9  UNL     1     -25.451  -2.139  63.358  1.00  0.00     0.290 C 
BRANCH  16  17
HETATM   17  O6  UNL     1     -25.480  -1.200  64.436  1.00  0.00    -0.311 OA
BRANCH  17  18
HETATM   18  C1  UNL     1     -26.481  -0.254  64.550  1.00  0.00     0.265 C 
HETATM   19  O1  UNL     1     -26.243   0.873  64.021  1.00  0.00    -0.265 OA
BRANCH  18  20
HETATM   20  C2  UNL     1     -27.767  -0.523  65.248  1.00  0.00     0.179 C 
BRANCH  20  21
HETATM   21  C3  UNL     1     -28.049   0.449  66.312  1.00  0.00     0.099 A 
HETATM   22  O2  UNL     1     -27.728   1.708  66.202  1.00  0.00    -0.314 OA
HETATM   23  C4  UNL     1     -27.992   2.575  67.181  1.00  0.00     0.080 A 
HETATM   24  C6  UNL     1     -28.609   2.205  68.352  1.00  0.00     0.092 A 
HETATM   25  C7  UNL     1     -28.963   0.884  68.507  1.00  0.00     0.209 A 
HETATM   26  O4  UNL     1     -29.527   0.447  69.532  1.00  0.00    -0.285 OA
HETATM   27  C8  UNL     1     -28.668   0.027  67.463  1.00  0.00     0.146 A 
BRANCH  23  28
HETATM   28  C5  UNL     1     -27.606   3.978  66.997  1.00  0.00     0.229 C 
BRANCH  28  29
HETATM   29  O3  UNL     1     -26.273   4.091  66.590  1.00  0.00    -0.394 OA
ATOM     30  H3  UNL     1     -26.068   3.473  65.898  1.00  0.00     0.209 HD
ENDBRANCH  28  29
ENDBRANCH  23  28
BRANCH  27  31
HETATM   31  O5  UNL     1     -29.024  -1.308  67.617  1.00  0.00    -0.355 OA
ATOM     32  H5  UNL     1     -29.940  -1.554  67.676  1.00  0.00     0.218 HD
ENDBRANCH  27  31
ENDBRANCH  20  21
ENDBRANCH  18  20
ENDBRANCH  17  18
ENDBRANCH  16  17
ENDBRANCH  14  16
ENDBRANCH  13  14
ENDBRANCH   1  13
BRANCH   8  33
HETATM   33  N1  UNL     1     -21.676   4.685  64.415  1.00  0.00     0.120 N 
HETATM   34  C16 UNL     1     -20.905   5.853  64.121  1.00  0.00     0.303 C 
HETATM   35  C17 UNL     1     -20.961   6.769  65.328  1.00  0.00     0.262 C 
HETATM   36  N2  UNL     1     -22.305   7.322  65.394  1.00  0.00    -0.072 N 
HETATM   37  C18 UNL     1     -23.312   6.329  65.183  1.00  0.00     0.262 C 
ATOM     38  H22 UNL     1     -22.456   7.820  66.272  1.00  0.00     0.277 HD
ATOM     39  H21 UNL     1     -22.415   8.101  64.745  1.00  0.00     0.277 HD
HETATM   40  C19 UNL     1     -22.743   4.937  65.357  1.00  0.00     0.303 C 
ENDBRANCH   8  33
BRANCH  11  41
HETATM   41  O12 UNL     1     -18.543   1.488  62.258  1.00  0.00    -0.290 OA
ATOM     42  H12 UNL     1     -18.311   1.154  63.116  1.00  0.00     0.244 HD
ENDBRANCH  11  41
TORSDOF 12
ENDMDL
MODEL 5
REMARK VINA RESULT: -8.488288947      2.141      3.452
REMARK  12 active torsions:
REMARK  status: ('A' for Active; 'I' for Inactive)
REMARK    1  A    between atoms: C1_2  and  C2_3 
REMARK    2  A    between atoms: C1_2  and  O6_16 
REMARK    3  A    between atoms: C2_3  and  C3_4 
REMARK    4  A    between atoms: C4_6  and  C5_7 
REMARK    5  A    between atoms: C5_7  and  O3_8 
REMARK    6  A    between atoms: C8_13  and  O5_14 
REMARK    7  A    between atoms: O6_16  and  C9_17 
REMARK    8  A    between atoms: C9_17  and  C10_18 
REMARK    9  A    between atoms: C10_18  and  O8_20 
REMARK   10  A    between atoms: O8_20  and  C11_21 
REMARK   11  A    between atoms: C15_28  and  N1_29 
REMARK   12  A    between atoms: N3_39  and  O12_41 
ROOT
HETATM    1  C11 UNL     1     -19.287   3.277  62.008  1.00  0.00     0.191 C 
HETATM    2  C12 UNL     1     -19.948   4.083  62.825  1.00  0.00     0.063 C 
HETATM    3  C13 UNL     1     -19.697   5.530  62.875  1.00  0.00     0.206 C 
HETATM    4  O9  UNL     1     -19.042   6.066  61.824  1.00  0.00    -0.324 OA
HETATM    5  C14 UNL     1     -18.582   5.268  60.832  1.00  0.00     0.336 C 
HETATM    6  O10 UNL     1     -18.343   3.925  61.211  1.00  0.00    -0.262 OA
HETATM    7  O11 UNL     1     -19.540   5.209  59.824  1.00  0.00    -0.290 OA
HETATM    8  C15 UNL     1     -19.170   6.008  58.784  1.00  0.00     0.369 C 
HETATM    9  C20 UNL     1     -17.670   5.929  58.770  1.00  0.00     0.127 C 
HETATM   10  C21 UNL     1     -17.379   5.888  60.226  1.00  0.00     0.106 C 
HETATM   11  N3  UNL     1     -16.299   6.318  60.756  1.00  0.00    -0.269 N 
ATOM     12  H3  UNL     1     -15.597   6.711  60.129  1.00  0.00     0.193 HD
ENDROOT
BRANCH   1  13
HETATM   13  O8  UNL     1     -19.482   1.909  61.920  1.00  0.00    -0.254 OA
BRANCH  13  14
HETATM   14  C10 UNL     1     -20.569   1.316  61.331  1.00  0.00     0.290 C 
HETATM   15  O7  UNL     1     -20.778   1.563  60.114  1.00  0.00    -0.262 OA
BRANCH  14  16
HETATM   16  C9  UNL     1     -21.503   0.407  62.043  1.00  0.00     0.290 C 
BRANCH  16  17
HETATM   17  O6  UNL     1     -21.267   0.448  63.454  1.00  0.00    -0.311 OA
BRANCH  17  18
HETATM   18  C1  UNL     1     -22.287   0.260  64.367  1.00  0.00     0.265 C 
HETATM   19  O1  UNL     1     -21.930  -0.069  65.538  1.00  0.00    -0.265 OA
BRANCH  18  20
HETATM   20  C2  UNL     1     -23.723   0.430  64.017  1.00  0.00     0.179 C 
BRANCH  20  21
HETATM   21  C3  UNL     1     -24.450  -0.844  63.970  1.00  0.00     0.099 A 
HETATM   22  O2  UNL     1     -23.858  -1.968  63.676  1.00  0.00    -0.314 OA
HETATM   23  C4  UNL     1     -24.536  -3.116  63.638  1.00  0.00     0.080 A 
HETATM   24  C6  UNL     1     -25.883  -3.189  63.902  1.00  0.00     0.092 A 
HETATM   25  C7  UNL     1     -26.545  -2.024  64.216  1.00  0.00     0.209 A 
HETATM   26  O4  UNL     1     -27.767  -1.984  64.472  1.00  0.00    -0.285 OA
HETATM   27  C8  UNL     1     -25.796  -0.862  64.242  1.00  0.00     0.146 A 
BRANCH  23  28
HETATM   28  C5  UNL     1     -23.814  -4.346  63.301  1.00  0.00     0.229 C 
BRANCH  28  29
HETATM   29  O3  UNL     1     -23.078  -4.198  62.121  1.00  0.00    -0.394 OA
ATOM     30  H3  UNL     1     -23.533  -4.579  61.379  1.00  0.00     0.209 HD
ENDBRANCH  28  29
ENDBRANCH  23  28
BRANCH  27  31
HETATM   31  O5  UNL     1     -26.462   0.316  64.560  1.00  0.00    -0.355 OA
ATOM     32  H5  UNL     1     -27.382   0.297  64.797  1.00  0.00     0.218 HD
ENDBRANCH  27  31
ENDBRANCH  20  21
ENDBRANCH  18  20
ENDBRANCH  17  18
ENDBRANCH  16  17
ENDBRANCH  14  16
ENDBRANCH  13  14
ENDBRANCH   1  13
BRANCH   8  33
HETATM   33  N1  UNL     1     -19.660   7.366  58.890  1.00  0.00     0.120 N 
HETATM   34  C16 UNL     1     -18.626   8.344  58.746  1.00  0.00     0.303 C 
HETATM   35  C17 UNL     1     -19.255   9.617  58.216  1.00  0.00     0.262 C 
HETATM   36  N2  UNL     1     -19.620   9.379  56.827  1.00  0.00    -0.072 N 
HETATM   37  C18 UNL     1     -20.264   8.115  56.644  1.00  0.00     0.262 C 
ATOM     38  H22 UNL     1     -20.192  10.140  56.461  1.00  0.00     0.277 HD
ATOM     39  H21 UNL     1     -18.812   9.472  56.213  1.00  0.00     0.277 HD
HETATM   40  C19 UNL     1     -20.753   7.561  57.966  1.00  0.00     0.303 C 
ENDBRANCH   8  33
BRANCH  11  41
HETATM   41  O12 UNL     1     -16.003   6.298  62.080  1.00  0.00    -0.290 OA
ATOM     42  H12 UNL     1     -15.187   5.998  62.462  1.00  0.00     0.244 HD
ENDBRANCH  11  41
TORSDOF 12
ENDMDL
