MODEL 1
REMARK VINA RESULT: -7.163336413      0.000      0.000
REMARK  9 active torsions:
REMARK  status: ('A' for Active; 'I' for Inactive)
REMARK    1  A    between atoms: C2_2  and  C3_3 
REMARK    2  A    between atoms: C2_2  and  N3_17 
REMARK    3  A    between atoms: C3_3  and  C4_4 
REMARK    4  A    between atoms: C4_4  and  C5_5 
REMARK    5  A    between atoms: C5_5  and  N1_6 
REMARK    6  A    between atoms: N1_6  and  C6_9 
REMARK    7  A    between atoms: C6_9  and  C7_10 
REMARK    8  A    between atoms: N3_17  and  C12_20 
REMARK    9  A    between atoms: C12_20  and  C13_21 
ROOT
HETATM    1  C5  UNL     1     -11.839  -2.631  30.885  1.00  0.00     0.232 C 
ENDROOT
BRANCH   1   2
HETATM    2  C4  UNL     1     -12.919  -1.704  31.290  1.00  0.00     0.029 C 
BRANCH   2   3
HETATM    3  C3  UNL     1     -13.714  -1.953  32.524  1.00  0.00     0.034 C 
BRANCH   3   4
HETATM    4  C2  UNL     1     -14.043  -0.585  33.071  1.00  0.00     0.182 C 
HETATM    5  C1  UNL     1     -13.140   0.470  32.411  1.00  0.00     0.040 C 
BRANCH   4   6
HETATM    6  N3  UNL     1     -13.972  -0.458  34.471  1.00  0.00    -0.071 N 
ATOM      7  H32 UNL     1     -13.011  -0.406  34.810  1.00  0.00     0.277 HD
ATOM      8  H31 UNL     1     -14.286   0.456  34.796  1.00  0.00     0.277 HD
BRANCH   6   9
HETATM    9  C12 UNL     1     -14.736  -1.579  35.089  1.00  0.00     0.237 C 
BRANCH   9  10
HETATM   10  C13 UNL     1     -13.945  -2.080  36.260  1.00  0.00     0.011 A 
HETATM   11  C14 UNL     1     -14.493  -3.150  37.136  1.00  0.00     0.007 A 
HETATM   12  C15 UNL     1     -13.438  -3.497  36.135  1.00  0.00     0.007 A 
ENDBRANCH   9  10
ENDBRANCH   6   9
ENDBRANCH   4   6
ENDBRANCH   3   4
ENDBRANCH   2   3
ENDBRANCH   1   2
BRANCH   1  13
HETATM   13  N1  UNL     1     -11.565  -3.619  31.896  1.00  0.00    -0.070 N 
ATOM     14  H12 UNL     1     -11.462  -3.181  32.811  1.00  0.00     0.277 HD
ATOM     15  H11 UNL     1     -12.391  -4.191  32.074  1.00  0.00     0.277 HD
BRANCH  13  16
HETATM   16  C6  UNL     1     -10.413  -4.457  31.592  1.00  0.00     0.289 C 
BRANCH  16  17
HETATM   17  C7  UNL     1     -10.891  -5.875  31.739  1.00  0.00     0.034 A 
HETATM   18  C8  UNL     1     -10.997  -6.397  33.024  1.00  0.00     0.027 A 
HETATM   19  C9  UNL     1     -11.243  -7.735  33.135  1.00  0.00     0.003 A 
HETATM   20  C10 UNL     1     -11.387  -8.533  32.013  1.00  0.00     0.017 A 
HETATM   21  C11 UNL     1     -11.284  -7.962  30.747  1.00  0.00     0.088 A 
HETATM   22  N2  UNL     1     -11.035  -6.628  30.651  1.00  0.00    -0.368 N 
ATOM     23  H2  UNL     1     -10.958  -6.198  29.730  1.00  0.00     0.165 HD
ENDBRANCH  16  17
ENDBRANCH  13  16
ENDBRANCH   1  13
TORSDOF 9
ENDMDL
MODEL 2
REMARK VINA RESULT: -7.006649155      2.071      7.910
REMARK  9 active torsions:
REMARK  status: ('A' for Active; 'I' for Inactive)
REMARK    1  A    between atoms: C2_2  and  C3_3 
REMARK    2  A    between atoms: C2_2  and  N3_17 
REMARK    3  A    between atoms: C3_3  and  C4_4 
REMARK    4  A    between atoms: C4_4  and  C5_5 
REMARK    5  A    between atoms: C5_5  and  N1_6 
REMARK    6  A    between atoms: N1_6  and  C6_9 
REMARK    7  A    between atoms: C6_9  and  C7_10 
REMARK    8  A    between atoms: N3_17  and  C12_20 
REMARK    9  A    between atoms: C12_20  and  C13_21 
ROOT
HETATM    1  C5  UNL     1     -12.568  -4.740  33.557  1.00  0.00     0.232 C 
ENDROOT
BRANCH   1   2
HETATM    2  C4  UNL     1     -11.157  -5.176  33.453  1.00  0.00     0.029 C 
BRANCH   2   3
HETATM    3  C3  UNL     1     -10.795  -6.615  33.555  1.00  0.00     0.034 C 
BRANCH   3   4
HETATM    4  C2  UNL     1     -11.491  -7.286  32.396  1.00  0.00     0.182 C 
HETATM    5  C1  UNL     1     -11.860  -8.729  32.776  1.00  0.00     0.040 C 
BRANCH   4   6
HETATM    6  N3  UNL     1     -10.782  -7.284  31.180  1.00  0.00    -0.071 N 
ATOM      7  H32 UNL     1     -10.984  -6.462  30.611  1.00  0.00     0.277 HD
ATOM      8  H31 UNL     1      -9.784  -7.123  31.310  1.00  0.00     0.277 HD
BRANCH   6   9
HETATM    9  C12 UNL     1     -11.066  -8.559  30.461  1.00  0.00     0.237 C 
BRANCH   9  10
HETATM   10  C13 UNL     1     -11.687  -8.213  29.141  1.00  0.00     0.011 A 
HETATM   11  C14 UNL     1     -10.845  -8.086  27.923  1.00  0.00     0.007 A 
HETATM   12  C15 UNL     1     -11.670  -9.318  28.112  1.00  0.00     0.007 A 
ENDBRANCH   9  10
ENDBRANCH   6   9
ENDBRANCH   4   6
ENDBRANCH   3   4
ENDBRANCH   2   3
ENDBRANCH   1   2
BRANCH   1  13
HETATM   13  N1  UNL     1     -12.690  -3.442  34.171  1.00  0.00    -0.070 N 
ATOM     14  H12 UNL     1     -11.807  -2.934  34.119  1.00  0.00     0.277 HD
ATOM     15  H11 UNL     1     -13.273  -2.828  33.602  1.00  0.00     0.277 HD
BRANCH  13  16
HETATM   16  C6  UNL     1     -13.177  -3.492  35.543  1.00  0.00     0.289 C 
BRANCH  16  17
HETATM   17  C7  UNL     1     -14.229  -2.422  35.640  1.00  0.00     0.034 A 
HETATM   18  C8  UNL     1     -14.090  -1.297  34.833  1.00  0.00     0.027 A 
HETATM   19  C9  UNL     1     -14.936  -0.253  35.067  1.00  0.00     0.003 A 
HETATM   20  C10 UNL     1     -15.895  -0.317  36.065  1.00  0.00     0.017 A 
HETATM   21  C11 UNL     1     -16.002  -1.469  36.840  1.00  0.00     0.088 A 
HETATM   22  N2  UNL     1     -15.150  -2.501  36.597  1.00  0.00    -0.368 N 
ATOM     23  H2  UNL     1     -15.218  -3.350  37.157  1.00  0.00     0.165 HD
ENDBRANCH  16  17
ENDBRANCH  13  16
ENDBRANCH   1  13
TORSDOF 9
ENDMDL
MODEL 3
REMARK VINA RESULT: -6.955048072      2.007      7.760
REMARK  9 active torsions:
REMARK  status: ('A' for Active; 'I' for Inactive)
REMARK    1  A    between atoms: C2_2  and  C3_3 
REMARK    2  A    between atoms: C2_2  and  N3_17 
REMARK    3  A    between atoms: C3_3  and  C4_4 
REMARK    4  A    between atoms: C4_4  and  C5_5 
REMARK    5  A    between atoms: C5_5  and  N1_6 
REMARK    6  A    between atoms: N1_6  and  C6_9 
REMARK    7  A    between atoms: C6_9  and  C7_10 
REMARK    8  A    between atoms: N3_17  and  C12_20 
REMARK    9  A    between atoms: C12_20  and  C13_21 
ROOT
HETATM    1  C5  UNL     1     -12.203  -4.944  33.363  1.00  0.00     0.232 C 
ENDROOT
BRANCH   1   2
HETATM    2  C4  UNL     1     -10.916  -5.664  33.496  1.00  0.00     0.029 C 
BRANCH   2   3
HETATM    3  C3  UNL     1     -10.862  -7.149  33.421  1.00  0.00     0.034 C 
BRANCH   3   4
HETATM    4  C2  UNL     1     -11.631  -7.516  32.175  1.00  0.00     0.182 C 
HETATM    5  C1  UNL     1     -12.413  -8.818  32.410  1.00  0.00     0.040 C 
BRANCH   4   6
HETATM    6  N3  UNL     1     -10.865  -7.630  31.000  1.00  0.00    -0.071 N 
ATOM      7  H32 UNL     1     -10.908  -6.791  30.422  1.00  0.00     0.277 HD
ATOM      8  H31 UNL     1      -9.862  -7.621  31.186  1.00  0.00     0.277 HD
BRANCH   6   9
HETATM    9  C12 UNL     1     -11.298  -8.853  30.266  1.00  0.00     0.237 C 
BRANCH   9  10
HETATM   10  C13 UNL     1     -11.779  -8.428  28.911  1.00  0.00     0.011 A 
HETATM   11  C14 UNL     1     -10.818  -8.261  27.790  1.00  0.00     0.007 A 
HETATM   12  C15 UNL     1     -11.681  -9.481  27.834  1.00  0.00     0.007 A 
ENDBRANCH   9  10
ENDBRANCH   6   9
ENDBRANCH   4   6
ENDBRANCH   3   4
ENDBRANCH   2   3
ENDBRANCH   1   2
BRANCH   1  13
HETATM   13  N1  UNL     1     -12.327  -3.876  34.321  1.00  0.00    -0.070 N 
ATOM     14  H12 UNL     1     -12.415  -4.248  35.267  1.00  0.00     0.277 HD
ATOM     15  H11 UNL     1     -11.445  -3.373  34.417  1.00  0.00     0.277 HD
BRANCH  13  16
HETATM   16  C6  UNL     1     -13.417  -2.955  34.025  1.00  0.00     0.289 C 
BRANCH  16  17
HETATM   17  C7  UNL     1     -14.086  -2.681  35.344  1.00  0.00     0.034 A 
HETATM   18  C8  UNL     1     -13.736  -3.476  36.430  1.00  0.00     0.027 A 
HETATM   19  C9  UNL     1     -14.484  -3.349  37.563  1.00  0.00     0.003 A 
HETATM   20  C10 UNL     1     -15.543  -2.459  37.627  1.00  0.00     0.017 A 
HETATM   21  C11 UNL     1     -15.848  -1.676  36.517  1.00  0.00     0.088 A 
HETATM   22  N2  UNL     1     -15.096  -1.816  35.392  1.00  0.00    -0.368 N 
ATOM     23  H2  UNL     1     -15.309  -1.248  34.573  1.00  0.00     0.165 HD
ENDBRANCH  16  17
ENDBRANCH  13  16
ENDBRANCH   1  13
TORSDOF 9
ENDMDL
MODEL 4
REMARK VINA RESULT: -6.953272103      1.710      7.521
REMARK  9 active torsions:
REMARK  status: ('A' for Active; 'I' for Inactive)
REMARK    1  A    between atoms: C2_2  and  C3_3 
REMARK    2  A    between atoms: C2_2  and  N3_17 
REMARK    3  A    between atoms: C3_3  and  C4_4 
REMARK    4  A    between atoms: C4_4  and  C5_5 
REMARK    5  A    between atoms: C5_5  and  N1_6 
REMARK    6  A    between atoms: N1_6  and  C6_9 
REMARK    7  A    between atoms: C6_9  and  C7_10 
REMARK    8  A    between atoms: N3_17  and  C12_20 
REMARK    9  A    between atoms: C12_20  and  C13_21 
ROOT
HETATM    1  C5  UNL     1     -10.965  -4.998  32.489  1.00  0.00     0.232 C 
ENDROOT
BRANCH   1   2
HETATM    2  C4  UNL     1     -11.031  -6.009  33.568  1.00  0.00     0.029 C 
BRANCH   2   3
HETATM    3  C3  UNL     1     -10.865  -7.457  33.268  1.00  0.00     0.034 C 
BRANCH   3   4
HETATM    4  C2  UNL     1     -11.581  -7.678  31.957  1.00  0.00     0.182 C 
HETATM    5  C1  UNL     1     -12.869  -8.482  32.198  1.00  0.00     0.040 C 
BRANCH   4   6
HETATM    6  N3  UNL     1     -10.820  -8.295  30.947  1.00  0.00    -0.071 N 
ATOM      7  H32 UNL     1     -10.377  -7.620  30.323  1.00  0.00     0.277 HD
ATOM      8  H31 UNL     1      -9.971  -8.729  31.308  1.00  0.00     0.277 HD
BRANCH   6   9
HETATM    9  C12 UNL     1     -11.691  -9.261  30.219  1.00  0.00     0.237 C 
BRANCH   9  10
HETATM   10  C13 UNL     1     -12.000  -8.675  28.874  1.00  0.00     0.011 A 
HETATM   11  C14 UNL     1     -10.902  -8.275  27.956  1.00  0.00     0.007 A 
HETATM   12  C15 UNL     1     -11.644  -9.546  27.694  1.00  0.00     0.007 A 
ENDBRANCH   9  10
ENDBRANCH   6   9
ENDBRANCH   4   6
ENDBRANCH   3   4
ENDBRANCH   2   3
ENDBRANCH   1   2
BRANCH   1  13
HETATM   13  N1  UNL     1     -12.049  -4.053  32.565  1.00  0.00    -0.070 N 
ATOM     14  H12 UNL     1     -11.694  -3.106  32.704  1.00  0.00     0.277 HD
ATOM     15  H11 UNL     1     -12.491  -3.936  31.653  1.00  0.00     0.277 HD
BRANCH  13  16
HETATM   16  C6  UNL     1     -13.040  -4.386  33.580  1.00  0.00     0.289 C 
BRANCH  16  17
HETATM   17  C7  UNL     1     -13.396  -3.084  34.244  1.00  0.00     0.034 A 
HETATM   18  C8  UNL     1     -13.769  -3.116  35.583  1.00  0.00     0.027 A 
HETATM   19  C9  UNL     1     -14.273  -1.967  36.118  1.00  0.00     0.003 A 
HETATM   20  C10 UNL     1     -14.401  -0.818  35.356  1.00  0.00     0.017 A 
HETATM   21  C11 UNL     1     -14.002  -0.832  34.021  1.00  0.00     0.088 A 
HETATM   22  N2  UNL     1     -13.504  -1.985  33.501  1.00  0.00    -0.368 N 
ATOM     23  H2  UNL     1     -13.209  -2.009  32.526  1.00  0.00     0.165 HD
ENDBRANCH  16  17
ENDBRANCH  13  16
ENDBRANCH   1  13
TORSDOF 9
ENDMDL
MODEL 5
REMARK VINA RESULT: -6.898904993      2.523      8.122
REMARK  9 active torsions:
REMARK  status: ('A' for Active; 'I' for Inactive)
REMARK    1  A    between atoms: C2_2  and  C3_3 
REMARK    2  A    between atoms: C2_2  and  N3_17 
REMARK    3  A    between atoms: C3_3  and  C4_4 
REMARK    4  A    between atoms: C4_4  and  C5_5 
REMARK    5  A    between atoms: C5_5  and  N1_6 
REMARK    6  A    between atoms: N1_6  and  C6_9 
REMARK    7  A    between atoms: C6_9  and  C7_10 
REMARK    8  A    between atoms: N3_17  and  C12_20 
REMARK    9  A    between atoms: C12_20  and  C13_21 
ROOT
HETATM    1  C5  UNL     1     -10.812  -6.398  33.560  1.00  0.00     0.232 C 
ENDROOT
BRANCH   1   2
HETATM    2  C4  UNL     1     -11.686  -7.342  32.828  1.00  0.00     0.029 C 
BRANCH   2   3
HETATM    3  C3  UNL     1     -11.120  -8.281  31.822  1.00  0.00     0.034 C 
BRANCH   3   4
HETATM    4  C2  UNL     1     -11.736  -7.875  30.505  1.00  0.00     0.182 C 
HETATM    5  C1  UNL     1     -13.104  -8.557  30.338  1.00  0.00     0.040 C 
BRANCH   4   6
HETATM    6  N3  UNL     1     -10.946  -8.117  29.365  1.00  0.00    -0.071 N 
ATOM      7  H32 UNL     1     -10.713  -7.260  28.863  1.00  0.00     0.277 HD
ATOM      8  H31 UNL     1      -9.996  -8.403  29.603  1.00  0.00     0.277 HD
BRANCH   6   9
HETATM    9  C12 UNL     1     -11.645  -9.113  28.504  1.00  0.00     0.237 C 
BRANCH   9  10
HETATM   10  C13 UNL     1     -11.247  -8.848  27.083  1.00  0.00     0.011 A 
HETATM   11  C14 UNL     1     -10.858  -9.969  26.188  1.00  0.00     0.007 A 
HETATM   12  C15 UNL     1     -12.213  -9.355  26.039  1.00  0.00     0.007 A 
ENDBRANCH   9  10
ENDBRANCH   6   9
ENDBRANCH   4   6
ENDBRANCH   3   4
ENDBRANCH   2   3
ENDBRANCH   1   2
BRANCH   1  13
HETATM   13  N1  UNL     1     -11.568  -5.408  34.283  1.00  0.00    -0.070 N 
ATOM     14  H12 UNL     1     -12.138  -5.847  35.006  1.00  0.00     0.277 HD
ATOM     15  H11 UNL     1     -10.955  -4.843  34.869  1.00  0.00     0.277 HD
BRANCH  13  16
HETATM   16  C6  UNL     1     -12.386  -4.562  33.424  1.00  0.00     0.289 C 
BRANCH  16  17
HETATM   17  C7  UNL     1     -13.239  -3.743  34.354  1.00  0.00     0.034 A 
HETATM   18  C8  UNL     1     -14.021  -2.734  33.802  1.00  0.00     0.027 A 
HETATM   19  C9  UNL     1     -14.637  -1.878  34.667  1.00  0.00     0.003 A 
HETATM   20  C10 UNL     1     -14.490  -2.016  36.037  1.00  0.00     0.017 A 
HETATM   21  C11 UNL     1     -13.705  -3.049  36.543  1.00  0.00     0.088 A 
HETATM   22  N2  UNL     1     -13.095  -3.893  35.668  1.00  0.00    -0.368 N 
ATOM     23  H2  UNL     1     -12.518  -4.654  36.025  1.00  0.00     0.165 HD
ENDBRANCH  16  17
ENDBRANCH  13  16
ENDBRANCH   1  13
TORSDOF 9
ENDMDL
