MODEL 1
REMARK VINA RESULT: -8.158690418      0.000      0.000
REMARK  11 active torsions:
REMARK  status: ('A' for Active; 'I' for Inactive)
REMARK       I    between atoms: C1_4  and  N3_6 
REMARK    1  A    between atoms: N3_6  and  C2_8 
REMARK    2  A    between atoms: C2_8  and  C3_9 
REMARK    3  A    between atoms: C2_8  and  C12_33 
REMARK    4  A    between atoms: C3_9  and  C4_11 
REMARK    5  A    between atoms: C6_14  and  C7_15 
REMARK    6  A    between atoms: C7_15  and  C8_17 
REMARK    7  A    between atoms: C8_17  and  S2_18 
REMARK    8  A    between atoms: S2_18  and  C9_19 
REMARK    9  A    between atoms: N6_26  and  N7_27 
REMARK   10  A    between atoms: C11_30  and  O4_31 
REMARK   11  A    between atoms: C15_36  and  N8_37 
ROOT
HETATM    1  C4  UNL     1     -14.922  24.522  -5.035  1.00  0.00     0.053 A 
HETATM    2  C5  UNL     1     -13.633  24.709  -5.496  1.00  0.00     0.068 A 
HETATM    3  S1  UNL     1     -12.928  25.692  -4.302  1.00  0.00    -0.095 SA
HETATM    4  C6  UNL     1     -14.253  25.849  -3.254  1.00  0.00     0.085 A 
HETATM    5  C11 UNL     1     -15.241  25.114  -3.874  1.00  0.00     0.101 A 
ENDROOT
BRANCH   1   6
HETATM    6  C3  UNL     1     -15.827  23.642  -5.840  1.00  0.00     0.190 C 
HETATM    7  O1  UNL     1     -16.636  24.172  -6.623  1.00  0.00    -0.290 OA
BRANCH   6   8
HETATM    8  C2  UNL     1     -15.802  22.192  -5.734  1.00  0.00     0.192 C 
BRANCH   8   9
HETATM    9  N3  UNL     1     -14.775  21.567  -6.491  1.00  0.00    -0.349 N 
HETATM   10  C1  UNL     1     -14.543  21.604  -7.872  1.00  0.00     0.182 C 
HETATM   11  N1  UNL     1     -13.371  22.060  -8.266  1.00  0.00    -0.374 N 
HETATM   12  N2  UNL     1     -15.402  21.215  -8.915  1.00  0.00    -0.064 NA
ATOM     13  H12 UNL     1     -13.202  22.087  -9.272  1.00  0.00     0.158 HD
ATOM     14  H11 UNL     1     -12.748  22.342  -7.510  1.00  0.00     0.158 HD
ATOM     15  H3  UNL     1     -14.112  21.010  -5.951  1.00  0.00     0.163 HD
ENDBRANCH   8   9
BRANCH   8  16
HETATM   16  C12 UNL     1     -15.629  21.719  -4.305  1.00  0.00    -0.028 A 
HETATM   17  C13 UNL     1     -14.394  21.453  -3.773  1.00  0.00     0.012 A 
HETATM   18  C14 UNL     1     -14.322  21.041  -2.452  1.00  0.00     0.037 A 
HETATM   19  C15 UNL     1     -15.435  20.888  -1.650  1.00  0.00     0.102 A 
HETATM   20  C16 UNL     1     -16.674  21.159  -2.200  1.00  0.00     0.037 A 
HETATM   21  C17 UNL     1     -16.746  21.572  -3.526  1.00  0.00     0.012 A 
BRANCH  19  22
HETATM   22  N8  UNL     1     -15.314  20.467  -0.305  1.00  0.00    -0.116 N 
HETATM   23  O5  UNL     1     -16.097  19.662   0.216  1.00  0.00    -0.532 OA
HETATM   24  O6  UNL     1     -14.293  20.967   0.453  1.00  0.00    -0.532 OA
ENDBRANCH  19  22
ENDBRANCH   8  16
ENDBRANCH   6   8
ENDBRANCH   1   6
BRANCH   5  25
HETATM   25  O4  UNL     1     -16.496  25.044  -3.246  1.00  0.00    -0.358 OA
ATOM     26  H4  UNL     1     -16.711  24.478  -2.514  1.00  0.00     0.217 HD
ENDBRANCH   5  25
BRANCH   4  27
HETATM   27  C7  UNL     1     -14.297  26.593  -1.983  1.00  0.00     0.178 C 
HETATM   28  O2  UNL     1     -15.299  27.364  -1.809  1.00  0.00    -0.291 OA
BRANCH  27  29
HETATM   29  C8  UNL     1     -13.297  26.516  -0.921  1.00  0.00     0.167 C 
BRANCH  29  30
HETATM   30  S2  UNL     1     -14.032  26.603   0.746  1.00  0.00    -0.083 SA
BRANCH  30  31
HETATM   31  C9  UNL     1     -13.507  25.111   1.604  1.00  0.00     0.185 A 
HETATM   32  N4  UNL     1     -13.922  23.850   1.429  1.00  0.00    -0.274 N 
HETATM   33  N5  UNL     1     -13.274  23.047   2.268  1.00  0.00    -0.248 N 
ATOM     34  H4  UNL     1     -14.627  23.551   0.756  1.00  0.00     0.189 HD
HETATM   35  C10 UNL     1     -12.429  23.798   2.994  1.00  0.00     0.361 A 
ATOM     36  H5  UNL     1     -13.396  22.037   2.347  1.00  0.00     0.192 HD
HETATM   37  O3  UNL     1     -11.666  23.330   3.885  1.00  0.00    -0.243 OA
HETATM   38  N6  UNL     1     -12.572  25.061   2.589  1.00  0.00    -0.186 N 
BRANCH  38  39
HETATM   39  N7  UNL     1     -11.879  26.153   3.087  1.00  0.00    -0.332 N 
ATOM     40  H72 UNL     1     -11.402  26.861   2.528  1.00  0.00     0.177 HD
ATOM     41  H71 UNL     1     -11.768  26.376   4.076  1.00  0.00     0.177 HD
ENDBRANCH  38  39
ENDBRANCH  30  31
ENDBRANCH  29  30
ENDBRANCH  27  29
ENDBRANCH   4  27
TORSDOF 11
ENDMDL
MODEL 2
REMARK VINA RESULT: -7.983440099      1.682      1.853
REMARK  11 active torsions:
REMARK  status: ('A' for Active; 'I' for Inactive)
REMARK       I    between atoms: C1_4  and  N3_6 
REMARK    1  A    between atoms: N3_6  and  C2_8 
REMARK    2  A    between atoms: C2_8  and  C3_9 
REMARK    3  A    between atoms: C2_8  and  C12_33 
REMARK    4  A    between atoms: C3_9  and  C4_11 
REMARK    5  A    between atoms: C6_14  and  C7_15 
REMARK    6  A    between atoms: C7_15  and  C8_17 
REMARK    7  A    between atoms: C8_17  and  S2_18 
REMARK    8  A    between atoms: S2_18  and  C9_19 
REMARK    9  A    between atoms: N6_26  and  N7_27 
REMARK   10  A    between atoms: C11_30  and  O4_31 
REMARK   11  A    between atoms: C15_36  and  N8_37 
ROOT
HETATM    1  C4  UNL     1     -13.667  25.203  -4.130  1.00  0.00     0.053 A 
HETATM    2  C5  UNL     1     -14.625  26.193  -4.224  1.00  0.00     0.068 A 
HETATM    3  S1  UNL     1     -14.225  27.247  -2.951  1.00  0.00    -0.095 SA
HETATM    4  C6  UNL     1     -12.873  26.432  -2.330  1.00  0.00     0.085 A 
HETATM    5  C11 UNL     1     -12.762  25.327  -3.148  1.00  0.00     0.101 A 
ENDROOT
BRANCH   1   6
HETATM    6  C3  UNL     1     -13.694  24.111  -5.154  1.00  0.00     0.190 C 
HETATM    7  O1  UNL     1     -12.786  24.064  -6.004  1.00  0.00    -0.290 OA
BRANCH   6   8
HETATM    8  C2  UNL     1     -14.746  23.108  -5.197  1.00  0.00     0.192 C 
BRANCH   8   9
HETATM    9  N3  UNL     1     -14.497  22.035  -6.093  1.00  0.00    -0.349 N 
HETATM   10  C1  UNL     1     -14.695  21.972  -7.479  1.00  0.00     0.182 C 
HETATM   11  N1  UNL     1     -13.639  21.702  -8.219  1.00  0.00    -0.374 N 
HETATM   12  N2  UNL     1     -15.886  22.159  -8.202  1.00  0.00    -0.064 NA
ATOM     13  H12 UNL     1     -13.783  21.657  -9.228  1.00  0.00     0.158 HD
ATOM     14  H11 UNL     1     -12.775  21.566  -7.695  1.00  0.00     0.158 HD
ATOM     15  H3  UNL     1     -14.120  21.188  -5.667  1.00  0.00     0.163 HD
ENDBRANCH   8   9
BRANCH   8  16
HETATM   16  C12 UNL     1     -15.005  22.483  -3.842  1.00  0.00    -0.028 A 
HETATM   17  C13 UNL     1     -14.313  21.383  -3.406  1.00  0.00     0.012 A 
HETATM   18  C14 UNL     1     -14.599  20.883  -2.145  1.00  0.00     0.037 A 
HETATM   19  C15 UNL     1     -15.546  21.442  -1.312  1.00  0.00     0.102 A 
HETATM   20  C16 UNL     1     -16.237  22.551  -1.764  1.00  0.00     0.037 A 
HETATM   21  C17 UNL     1     -15.950  23.052  -3.029  1.00  0.00     0.012 A 
BRANCH  19  22
HETATM   22  N8  UNL     1     -15.804  20.899  -0.031  1.00  0.00    -0.116 N 
HETATM   23  O5  UNL     1     -15.879  19.681   0.175  1.00  0.00    -0.532 OA
HETATM   24  O6  UNL     1     -15.976  21.751   1.024  1.00  0.00    -0.532 OA
ENDBRANCH  19  22
ENDBRANCH   8  16
ENDBRANCH   6   8
ENDBRANCH   1   6
BRANCH   5  25
HETATM   25  O4  UNL     1     -11.715  24.426  -2.890  1.00  0.00    -0.358 OA
ATOM     26  H4  UNL     1     -11.259  24.338  -2.062  1.00  0.00     0.217 HD
ENDBRANCH   5  25
BRANCH   4  27
HETATM   27  C7  UNL     1     -12.034  26.843  -1.192  1.00  0.00     0.178 C 
HETATM   28  O2  UNL     1     -10.779  26.630  -1.302  1.00  0.00    -0.291 OA
BRANCH  27  29
HETATM   29  C8  UNL     1     -12.518  27.468   0.037  1.00  0.00     0.167 C 
BRANCH  29  30
HETATM   30  S2  UNL     1     -14.046  26.696   0.665  1.00  0.00    -0.083 SA
BRANCH  30  31
HETATM   31  C9  UNL     1     -13.536  25.192   1.513  1.00  0.00     0.185 A 
HETATM   32  N4  UNL     1     -13.935  23.931   1.302  1.00  0.00    -0.274 N 
HETATM   33  N5  UNL     1     -13.307  23.118   2.147  1.00  0.00    -0.248 N 
ATOM     34  H4  UNL     1     -14.615  23.638   0.601  1.00  0.00     0.189 HD
HETATM   35  C10 UNL     1     -12.493  23.862   2.913  1.00  0.00     0.361 A 
ATOM     36  H5  UNL     1     -13.423  22.105   2.203  1.00  0.00     0.192 HD
HETATM   37  O3  UNL     1     -11.754  23.385   3.819  1.00  0.00    -0.243 OA
HETATM   38  N6  UNL     1     -12.633  25.131   2.526  1.00  0.00    -0.186 N 
BRANCH  38  39
HETATM   39  N7  UNL     1     -11.966  26.220   3.065  1.00  0.00    -0.332 N 
ATOM     40  H72 UNL     1     -10.980  26.442   2.929  1.00  0.00     0.177 HD
ATOM     41  H71 UNL     1     -12.390  26.929   3.663  1.00  0.00     0.177 HD
ENDBRANCH  38  39
ENDBRANCH  30  31
ENDBRANCH  29  30
ENDBRANCH  27  29
ENDBRANCH   4  27
TORSDOF 11
ENDMDL
MODEL 3
REMARK VINA RESULT: -7.892174058      3.109      8.612
REMARK  11 active torsions:
REMARK  status: ('A' for Active; 'I' for Inactive)
REMARK       I    between atoms: C1_4  and  N3_6 
REMARK    1  A    between atoms: N3_6  and  C2_8 
REMARK    2  A    between atoms: C2_8  and  C3_9 
REMARK    3  A    between atoms: C2_8  and  C12_33 
REMARK    4  A    between atoms: C3_9  and  C4_11 
REMARK    5  A    between atoms: C6_14  and  C7_15 
REMARK    6  A    between atoms: C7_15  and  C8_17 
REMARK    7  A    between atoms: C8_17  and  S2_18 
REMARK    8  A    between atoms: S2_18  and  C9_19 
REMARK    9  A    between atoms: N6_26  and  N7_27 
REMARK   10  A    between atoms: C11_30  and  O4_31 
REMARK   11  A    between atoms: C15_36  and  N8_37 
ROOT
HETATM    1  C4  UNL     1     -14.273  23.814  -4.253  1.00  0.00     0.053 A 
HETATM    2  C5  UNL     1     -14.591  25.021  -4.844  1.00  0.00     0.068 A 
HETATM    3  S1  UNL     1     -14.908  24.595  -6.460  1.00  0.00    -0.095 SA
HETATM    4  C6  UNL     1     -14.639  22.922  -6.364  1.00  0.00     0.085 A 
HETATM    5  C11 UNL     1     -14.297  22.729  -5.042  1.00  0.00     0.101 A 
ENDROOT
BRANCH   1   6
HETATM    6  C3  UNL     1     -13.980  23.815  -2.785  1.00  0.00     0.190 C 
HETATM    7  O1  UNL     1     -12.838  24.129  -2.402  1.00  0.00    -0.290 OA
BRANCH   6   8
HETATM    8  C2  UNL     1     -14.978  23.455  -1.790  1.00  0.00     0.192 C 
BRANCH   8   9
HETATM    9  N3  UNL     1     -15.469  22.127  -1.905  1.00  0.00    -0.349 N 
HETATM   10  C1  UNL     1     -16.734  21.681  -2.310  1.00  0.00     0.182 C 
HETATM   11  N1  UNL     1     -16.775  20.871  -3.348  1.00  0.00    -0.374 N 
HETATM   12  N2  UNL     1     -17.988  21.983  -1.751  1.00  0.00    -0.064 NA
ATOM     13  H12 UNL     1     -17.696  20.546  -3.643  1.00  0.00     0.158 HD
ATOM     14  H11 UNL     1     -15.865  20.652  -3.753  1.00  0.00     0.158 HD
ATOM     15  H3  UNL     1     -14.805  21.393  -1.658  1.00  0.00     0.163 HD
ENDBRANCH   8   9
BRANCH   8  16
HETATM   16  C12 UNL     1     -14.461  23.599  -0.374  1.00  0.00    -0.028 A 
HETATM   17  C13 UNL     1     -14.229  22.512   0.428  1.00  0.00     0.012 A 
HETATM   18  C14 UNL     1     -13.739  22.730   1.706  1.00  0.00     0.037 A 
HETATM   19  C15 UNL     1     -13.475  23.989   2.206  1.00  0.00     0.102 A 
HETATM   20  C16 UNL     1     -13.714  25.077   1.387  1.00  0.00     0.037 A 
HETATM   21  C17 UNL     1     -14.206  24.858   0.104  1.00  0.00     0.012 A 
BRANCH  19  22
HETATM   22  N8  UNL     1     -12.973  24.164   3.517  1.00  0.00    -0.116 N 
HETATM   23  O5  UNL     1     -13.568  24.828   4.376  1.00  0.00    -0.532 OA
HETATM   24  O6  UNL     1     -11.784  23.580   3.852  1.00  0.00    -0.532 OA
ENDBRANCH  19  22
ENDBRANCH   8  16
ENDBRANCH   6   8
ENDBRANCH   1   6
BRANCH   5  25
HETATM   25  O4  UNL     1     -14.004  21.418  -4.628  1.00  0.00    -0.358 OA
ATOM     26  H4  UNL     1     -14.633  20.804  -4.268  1.00  0.00     0.217 HD
ENDBRANCH   5  25
BRANCH   4  27
HETATM   27  C7  UNL     1     -14.761  21.939  -7.453  1.00  0.00     0.178 C 
HETATM   28  O2  UNL     1     -15.685  21.067  -7.332  1.00  0.00    -0.291 OA
BRANCH  27  29
HETATM   29  C8  UNL     1     -13.919  21.886  -8.646  1.00  0.00     0.167 C 
BRANCH  29  30
HETATM   30  S2  UNL     1     -14.858  22.164 -10.184  1.00  0.00    -0.083 SA
BRANCH  30  31
HETATM   31  C9  UNL     1     -15.247  20.532 -10.835  1.00  0.00     0.185 A 
HETATM   32  N4  UNL     1     -14.556  19.787 -11.709  1.00  0.00    -0.274 N 
HETATM   33  N5  UNL     1     -15.194  18.640 -11.919  1.00  0.00    -0.248 N 
ATOM     34  H4  UNL     1     -13.675  20.059 -12.145  1.00  0.00     0.189 HD
HETATM   35  C10 UNL     1     -16.312  18.642 -11.174  1.00  0.00     0.361 A 
ATOM     36  H5  UNL     1     -14.888  17.889 -12.539  1.00  0.00     0.192 HD
HETATM   37  O3  UNL     1     -17.140  17.689 -11.151  1.00  0.00    -0.243 OA
HETATM   38  N6  UNL     1     -16.345  19.799 -10.511  1.00  0.00    -0.186 N 
BRANCH  38  39
HETATM   39  N7  UNL     1     -17.337  20.198  -9.629  1.00  0.00    -0.332 N 
ATOM     40  H72 UNL     1     -18.332  19.992  -9.717  1.00  0.00     0.177 HD
ATOM     41  H71 UNL     1     -17.182  20.747  -8.783  1.00  0.00     0.177 HD
ENDBRANCH  38  39
ENDBRANCH  30  31
ENDBRANCH  29  30
ENDBRANCH  27  29
ENDBRANCH   4  27
TORSDOF 11
ENDMDL
MODEL 4
REMARK VINA RESULT: -7.749474157      2.101      2.470
REMARK  11 active torsions:
REMARK  status: ('A' for Active; 'I' for Inactive)
REMARK       I    between atoms: C1_4  and  N3_6 
REMARK    1  A    between atoms: N3_6  and  C2_8 
REMARK    2  A    between atoms: C2_8  and  C3_9 
REMARK    3  A    between atoms: C2_8  and  C12_33 
REMARK    4  A    between atoms: C3_9  and  C4_11 
REMARK    5  A    between atoms: C6_14  and  C7_15 
REMARK    6  A    between atoms: C7_15  and  C8_17 
REMARK    7  A    between atoms: C8_17  and  S2_18 
REMARK    8  A    between atoms: S2_18  and  C9_19 
REMARK    9  A    between atoms: N6_26  and  N7_27 
REMARK   10  A    between atoms: C11_30  and  O4_31 
REMARK   11  A    between atoms: C15_36  and  N8_37 
ROOT
HETATM    1  C4  UNL     1     -13.842  25.112  -4.533  1.00  0.00     0.053 A 
HETATM    2  C5  UNL     1     -14.812  26.047  -4.838  1.00  0.00     0.068 A 
HETATM    3  S1  UNL     1     -14.539  27.280  -3.699  1.00  0.00    -0.095 SA
HETATM    4  C6  UNL     1     -13.222  26.604  -2.869  1.00  0.00     0.085 A 
HETATM    5  C11 UNL     1     -13.021  25.402  -3.513  1.00  0.00     0.101 A 
ENDROOT
BRANCH   1   6
HETATM    6  C3  UNL     1     -13.762  23.889  -5.393  1.00  0.00     0.190 C 
HETATM    7  O1  UNL     1     -12.761  23.729  -6.116  1.00  0.00    -0.290 OA
BRANCH   6   8
HETATM    8  C2  UNL     1     -14.812  22.884  -5.420  1.00  0.00     0.192 C 
BRANCH   8   9
HETATM    9  N3  UNL     1     -14.596  21.833  -6.350  1.00  0.00    -0.349 N 
HETATM   10  C1  UNL     1     -14.726  21.841  -7.745  1.00  0.00     0.182 C 
HETATM   11  N1  UNL     1     -13.655  21.524  -8.444  1.00  0.00    -0.374 N 
HETATM   12  N2  UNL     1     -15.862  22.144  -8.516  1.00  0.00    -0.064 NA
ATOM     13  H12 UNL     1     -13.750  21.530  -9.460  1.00  0.00     0.158 HD
ATOM     14  H11 UNL     1     -12.831  21.303  -7.885  1.00  0.00     0.158 HD
ATOM     15  H3  UNL     1     -14.303  20.943  -5.943  1.00  0.00     0.163 HD
ENDBRANCH   8   9
BRANCH   8  16
HETATM   16  C12 UNL     1     -15.020  22.228  -4.071  1.00  0.00    -0.028 A 
HETATM   17  C13 UNL     1     -14.126  21.323  -3.559  1.00  0.00     0.012 A 
HETATM   18  C14 UNL     1     -14.381  20.781  -2.309  1.00  0.00     0.037 A 
HETATM   19  C15 UNL     1     -15.492  21.110  -1.559  1.00  0.00     0.102 A 
HETATM   20  C16 UNL     1     -16.386  22.024  -2.088  1.00  0.00     0.037 A 
HETATM   21  C17 UNL     1     -16.129  22.567  -3.342  1.00  0.00     0.012 A 
BRANCH  19  22
HETATM   22  N8  UNL     1     -15.711  20.533  -0.286  1.00  0.00    -0.116 N 
HETATM   23  O5  UNL     1     -16.680  19.802  -0.043  1.00  0.00    -0.532 OA
HETATM   24  O6  UNL     1     -14.820  20.792   0.717  1.00  0.00    -0.532 OA
ENDBRANCH  19  22
ENDBRANCH   8  16
ENDBRANCH   6   8
ENDBRANCH   1   6
BRANCH   5  25
HETATM   25  O4  UNL     1     -11.978  24.580  -3.052  1.00  0.00    -0.358 OA
ATOM     26  H4  UNL     1     -11.056  24.808  -3.063  1.00  0.00     0.217 HD
ENDBRANCH   5  25
BRANCH   4  27
HETATM   27  C7  UNL     1     -12.487  27.196  -1.739  1.00  0.00     0.178 C 
HETATM   28  O2  UNL     1     -11.625  26.449  -1.165  1.00  0.00    -0.291 OA
BRANCH  27  29
HETATM   29  C8  UNL     1     -12.663  28.555  -1.231  1.00  0.00     0.167 C 
BRANCH  29  30
HETATM   30  S2  UNL     1     -13.636  28.610   0.310  1.00  0.00    -0.083 SA
BRANCH  30  31
HETATM   31  C9  UNL     1     -14.765  27.211   0.241  1.00  0.00     0.185 A 
HETATM   32  N4  UNL     1     -15.992  27.145  -0.292  1.00  0.00    -0.274 N 
HETATM   33  N5  UNL     1     -16.483  25.919  -0.133  1.00  0.00    -0.248 N 
ATOM     34  H4  UNL     1     -16.476  27.917  -0.750  1.00  0.00     0.189 HD
HETATM   35  C10 UNL     1     -15.562  25.183   0.510  1.00  0.00     0.361 A 
ATOM     36  H5  UNL     1     -17.398  25.595  -0.446  1.00  0.00     0.192 HD
HETATM   37  O3  UNL     1     -15.724  23.968   0.814  1.00  0.00    -0.243 OA
HETATM   38  N6  UNL     1     -14.511  25.972   0.740  1.00  0.00    -0.186 N 
BRANCH  38  39
HETATM   39  N7  UNL     1     -13.342  25.597   1.383  1.00  0.00    -0.332 N 
ATOM     40  H72 UNL     1     -12.797  26.180   2.018  1.00  0.00     0.177 HD
ATOM     41  H71 UNL     1     -12.891  24.686   1.294  1.00  0.00     0.177 HD
ENDBRANCH  38  39
ENDBRANCH  30  31
ENDBRANCH  29  30
ENDBRANCH  27  29
ENDBRANCH   4  27
TORSDOF 11
ENDMDL
MODEL 5
REMARK VINA RESULT: -7.697331850      2.505      5.002
REMARK  11 active torsions:
REMARK  status: ('A' for Active; 'I' for Inactive)
REMARK       I    between atoms: C1_4  and  N3_6 
REMARK    1  A    between atoms: N3_6  and  C2_8 
REMARK    2  A    between atoms: C2_8  and  C3_9 
REMARK    3  A    between atoms: C2_8  and  C12_33 
REMARK    4  A    between atoms: C3_9  and  C4_11 
REMARK    5  A    between atoms: C6_14  and  C7_15 
REMARK    6  A    between atoms: C7_15  and  C8_17 
REMARK    7  A    between atoms: C8_17  and  S2_18 
REMARK    8  A    between atoms: S2_18  and  C9_19 
REMARK    9  A    between atoms: N6_26  and  N7_27 
REMARK   10  A    between atoms: C11_30  and  O4_31 
REMARK   11  A    between atoms: C15_36  and  N8_37 
ROOT
HETATM    1  C4  UNL     1     -14.850  23.878  -4.423  1.00  0.00     0.053 A 
HETATM    2  C5  UNL     1     -13.522  23.617  -4.696  1.00  0.00     0.068 A 
HETATM    3  S1  UNL     1     -12.693  24.656  -3.636  1.00  0.00    -0.095 SA
HETATM    4  C6  UNL     1     -14.019  25.392  -2.875  1.00  0.00     0.085 A 
HETATM    5  C11 UNL     1     -15.105  24.798  -3.481  1.00  0.00     0.101 A 
ENDROOT
BRANCH   1   6
HETATM    6  C3  UNL     1     -15.881  23.082  -5.162  1.00  0.00     0.190 C 
HETATM    7  O1  UNL     1     -16.838  23.681  -5.685  1.00  0.00    -0.290 OA
BRANCH   6   8
HETATM    8  C2  UNL     1     -15.809  21.635  -5.284  1.00  0.00     0.192 C 
BRANCH   8   9
HETATM    9  N3  UNL     1     -16.604  20.926  -4.344  1.00  0.00    -0.349 N 
HETATM   10  C1  UNL     1     -16.544  20.937  -2.944  1.00  0.00     0.182 C 
HETATM   11  N1  UNL     1     -17.638  21.297  -2.305  1.00  0.00    -0.374 N 
HETATM   12  N2  UNL     1     -15.459  20.609  -2.112  1.00  0.00    -0.064 NA
ATOM     13  H12 UNL     1     -17.595  21.305  -1.286  1.00  0.00     0.158 HD
ATOM     14  H11 UNL     1     -18.425  21.534  -2.908  1.00  0.00     0.158 HD
ATOM     15  H3  UNL     1     -17.322  20.322  -4.746  1.00  0.00     0.163 HD
ENDBRANCH   8   9
BRANCH   8  16
HETATM   16  C12 UNL     1     -16.230  21.148  -6.655  1.00  0.00    -0.028 A 
HETATM   17  C13 UNL     1     -15.384  21.195  -7.733  1.00  0.00     0.012 A 
HETATM   18  C14 UNL     1     -15.842  20.713  -8.949  1.00  0.00     0.037 A 
HETATM   19  C15 UNL     1     -17.107  20.190  -9.123  1.00  0.00     0.102 A 
HETATM   20  C16 UNL     1     -17.950  20.149  -8.028  1.00  0.00     0.037 A 
HETATM   21  C17 UNL     1     -17.491  20.633  -6.807  1.00  0.00     0.012 A 
BRANCH  19  22
HETATM   22  N8  UNL     1     -17.531  19.706 -10.384  1.00  0.00    -0.116 N 
HETATM   23  O5  UNL     1     -18.250  20.367 -11.144  1.00  0.00    -0.532 OA
HETATM   24  O6  UNL     1     -17.132  18.461 -10.781  1.00  0.00    -0.532 OA
ENDBRANCH  19  22
ENDBRANCH   8  16
ENDBRANCH   6   8
ENDBRANCH   1   6
BRANCH   5  25
HETATM   25  O4  UNL     1     -16.386  25.200  -3.065  1.00  0.00    -0.358 OA
ATOM     26  H4  UNL     1     -16.566  25.846  -2.392  1.00  0.00     0.217 HD
ENDBRANCH   5  25
BRANCH   4  27
HETATM   27  C7  UNL     1     -13.979  26.412  -1.814  1.00  0.00     0.178 C 
HETATM   28  O2  UNL     1     -14.940  27.254  -1.796  1.00  0.00    -0.291 OA
BRANCH  27  29
HETATM   29  C8  UNL     1     -12.941  26.534  -0.793  1.00  0.00     0.167 C 
BRANCH  29  30
HETATM   30  S2  UNL     1     -13.543  26.111   0.876  1.00  0.00    -0.083 SA
BRANCH  30  31
HETATM   31  C9  UNL     1     -14.447  24.565   0.707  1.00  0.00     0.185 A 
HETATM   32  N4  UNL     1     -14.001  23.309   0.850  1.00  0.00    -0.274 N 
HETATM   33  N5  UNL     1     -15.000  22.456   0.642  1.00  0.00    -0.248 N 
ATOM     34  H4  UNL     1     -13.044  23.048   1.084  1.00  0.00     0.189 HD
HETATM   35  C10 UNL     1     -16.104  23.167   0.360  1.00  0.00     0.361 A 
ATOM     36  H5  UNL     1     -14.938  21.438   0.689  1.00  0.00     0.192 HD
HETATM   37  O3  UNL     1     -17.227  22.647   0.112  1.00  0.00    -0.243 OA
HETATM   38  N6  UNL     1     -15.766  24.457   0.399  1.00  0.00    -0.186 N 
BRANCH  38  39
HETATM   39  N7  UNL     1     -16.619  25.524   0.165  1.00  0.00    -0.332 N 
ATOM     40  H72 UNL     1     -17.023  25.779  -0.736  1.00  0.00     0.177 HD
ATOM     41  H71 UNL     1     -16.945  26.180   0.875  1.00  0.00     0.177 HD
ENDBRANCH  38  39
ENDBRANCH  30  31
ENDBRANCH  29  30
ENDBRANCH  27  29
ENDBRANCH   4  27
TORSDOF 11
ENDMDL
