MODEL 1
REMARK VINA RESULT: -9.209410379      0.000      0.000
REMARK  5 active torsions:
REMARK  status: ('A' for Active; 'I' for Inactive)
REMARK    1  A    between atoms: O1_2  and  C2_3 
REMARK    2  A    between atoms: C2_3  and  C3_5 
REMARK    3  A    between atoms: C8_12  and  C9_13 
REMARK    4  A    between atoms: C9_13  and  O5_14 
REMARK    5  A    between atoms: C9_13  and  C10_16 
ROOT
HETATM    1  C3  UNL     1      20.537   7.655  -6.847  1.00  0.00     0.154 A 
HETATM    2  C4  UNL     1      21.342   7.598  -7.967  1.00  0.00     0.062 A 
HETATM    3  C5  UNL     1      20.927   8.630  -8.786  1.00  0.00     0.055 A 
HETATM    4  C6  UNL     1      19.897   9.270  -8.139  1.00  0.00     0.204 A 
HETATM    5  O3  UNL     1      19.695   8.667  -6.998  1.00  0.00    -0.281 OA
HETATM    6  O4  UNL     1      19.448  10.283  -8.882  1.00  0.00    -0.284 OA
HETATM    7  C7  UNL     1      20.149  10.336 -10.010  1.00  0.00     0.119 A 
HETATM    8  C8  UNL     1      20.055  11.210 -11.102  1.00  0.00     0.040 A 
HETATM    9  C18 UNL     1      20.939  10.989 -12.125  1.00  0.00     0.091 A 
HETATM   10  C19 UNL     1      21.873   9.942 -12.056  1.00  0.00     0.246 A 
HETATM   11  O6  UNL     1      22.653   9.807 -13.040  1.00  0.00    -0.268 OA
HETATM   12  N1  UNL     1      21.928   9.128 -10.991  1.00  0.00    -0.320 N 
ATOM     13  H1  UNL     1      22.613   8.372 -10.956  1.00  0.00     0.169 HD
HETATM   14  C20 UNL     1      21.074   9.317  -9.971  1.00  0.00     0.085 A 
ENDROOT
BRANCH   8  15
HETATM   15  C9  UNL     1      19.055  12.240 -11.101  1.00  0.00     0.089 C 
BRANCH  15  16
HETATM   16  O5  UNL     1      19.380  13.361 -10.525  1.00  0.00    -0.359 OA
ATOM     17  H5  UNL     1      20.266  13.669 -10.670  1.00  0.00     0.217 HD
ENDBRANCH  15  16
BRANCH  15  18
HETATM   18  C10 UNL     1      17.726  12.207 -11.647  1.00  0.00    -0.001 A 
HETATM   19  C11 UNL     1      17.351  12.917 -12.763  1.00  0.00     0.022 A 
HETATM   20  C12 UNL     1      16.049  12.768 -13.224  1.00  0.00    -0.039 A 
HETATM   21  C13 UNL     1      15.597  13.524 -14.450  1.00  0.00     0.050 C 
HETATM   22  C14 UNL     1      15.141  11.941 -12.599  1.00  0.00     0.045 A 
HETATM   23 CL1  UNL     1      13.484  11.755 -13.210  1.00  0.00    -0.083 Cl
HETATM   24  C15 UNL     1      15.496  11.226 -11.480  1.00  0.00    -0.039 A 
HETATM   25  C16 UNL     1      14.486  10.352 -10.831  1.00  0.00     0.050 C 
HETATM   26  C17 UNL     1      16.792  11.379 -11.029  1.00  0.00     0.022 A 
ENDBRANCH  15  18
ENDBRANCH   8  15
BRANCH   1  27
HETATM   27  C2  UNL     1      20.576   6.773  -5.677  1.00  0.00     0.317 C 
HETATM   28  O2  UNL     1      21.484   5.882  -5.601  1.00  0.00    -0.257 OA
BRANCH  27  29
HETATM   29  O1  UNL     1      19.677   6.842  -4.633  1.00  0.00    -0.321 OA
HETATM   30  C1  UNL     1      18.338   6.378  -4.880  1.00  0.00     0.213 C 
ENDBRANCH  27  29
ENDBRANCH   1  27
TORSDOF 5
ENDMDL
MODEL 2
REMARK VINA RESULT: -9.129563060      0.141      1.604
REMARK  5 active torsions:
REMARK  status: ('A' for Active; 'I' for Inactive)
REMARK    1  A    between atoms: O1_2  and  C2_3 
REMARK    2  A    between atoms: C2_3  and  C3_5 
REMARK    3  A    between atoms: C8_12  and  C9_13 
REMARK    4  A    between atoms: C9_13  and  O5_14 
REMARK    5  A    between atoms: C9_13  and  C10_16 
ROOT
HETATM    1  C3  UNL     1      20.519   7.628  -6.831  1.00  0.00     0.154 A 
HETATM    2  C4  UNL     1      21.345   7.600  -7.936  1.00  0.00     0.062 A 
HETATM    3  C5  UNL     1      20.902   8.609  -8.768  1.00  0.00     0.055 A 
HETATM    4  C6  UNL     1      19.834   9.208  -8.142  1.00  0.00     0.204 A 
HETATM    5  O3  UNL     1      19.637   8.603  -7.002  1.00  0.00    -0.281 OA
HETATM    6  O4  UNL     1      19.355  10.198  -8.898  1.00  0.00    -0.284 OA
HETATM    7  C7  UNL     1      20.073  10.276 -10.014  1.00  0.00     0.119 A 
HETATM    8  C8  UNL     1      19.962  11.140 -11.112  1.00  0.00     0.040 A 
HETATM    9  C18 UNL     1      20.872  10.951 -12.118  1.00  0.00     0.091 A 
HETATM   10  C19 UNL     1      21.848   9.945 -12.028  1.00  0.00     0.246 A 
HETATM   11  O6  UNL     1      22.650   9.839 -12.998  1.00  0.00    -0.268 OA
HETATM   12  N1  UNL     1      21.919   9.139 -10.958  1.00  0.00    -0.320 N 
ATOM     13  H1  UNL     1      22.634   8.413 -10.907  1.00  0.00     0.169 HD
HETATM   14  C20 UNL     1      21.040   9.297  -9.954  1.00  0.00     0.085 A 
ENDROOT
BRANCH   8  15
HETATM   15  C9  UNL     1      18.919  12.126 -11.133  1.00  0.00     0.089 C 
BRANCH  15  16
HETATM   16  O5  UNL     1      19.215  13.292 -10.635  1.00  0.00    -0.359 OA
ATOM     17  H5  UNL     1      18.918  14.049 -11.127  1.00  0.00     0.217 HD
ENDBRANCH  15  16
BRANCH  15  18
HETATM   18  C10 UNL     1      17.575  12.007 -11.628  1.00  0.00    -0.001 A 
HETATM   19  C11 UNL     1      16.607  11.252 -11.008  1.00  0.00     0.022 A 
HETATM   20  C12 UNL     1      15.330  11.253 -11.555  1.00  0.00    -0.039 A 
HETATM   21  C13 UNL     1      14.236  10.443 -10.904  1.00  0.00     0.050 C 
HETATM   22  C14 UNL     1      15.017  11.978 -12.684  1.00  0.00     0.045 A 
HETATM   23 CL1  UNL     1      13.376  11.975 -13.363  1.00  0.00    -0.083 Cl
HETATM   24  C15 UNL     1      15.972  12.736 -13.320  1.00  0.00    -0.039 A 
HETATM   25  C16 UNL     1      15.597  13.497 -14.538  1.00  0.00     0.050 C 
HETATM   26  C17 UNL     1      17.238  12.732 -12.769  1.00  0.00     0.022 A 
ENDBRANCH  15  18
ENDBRANCH   8  15
BRANCH   1  27
HETATM   27  C2  UNL     1      20.575   6.753  -5.655  1.00  0.00     0.317 C 
HETATM   28  O2  UNL     1      21.496   5.877  -5.577  1.00  0.00    -0.257 OA
BRANCH  27  29
HETATM   29  O1  UNL     1      19.677   6.815  -4.610  1.00  0.00    -0.321 OA
HETATM   30  C1  UNL     1      18.326   6.396  -4.871  1.00  0.00     0.213 C 
ENDBRANCH  27  29
ENDBRANCH   1  27
TORSDOF 5
ENDMDL
MODEL 3
REMARK VINA RESULT: -8.898464447      1.229      1.463
REMARK  5 active torsions:
REMARK  status: ('A' for Active; 'I' for Inactive)
REMARK    1  A    between atoms: O1_2  and  C2_3 
REMARK    2  A    between atoms: C2_3  and  C3_5 
REMARK    3  A    between atoms: C8_12  and  C9_13 
REMARK    4  A    between atoms: C9_13  and  O5_14 
REMARK    5  A    between atoms: C9_13  and  C10_16 
ROOT
HETATM    1  C3  UNL     1      20.564   7.798  -6.897  1.00  0.00     0.154 A 
HETATM    2  C4  UNL     1      21.492   8.258  -7.809  1.00  0.00     0.062 A 
HETATM    3  C5  UNL     1      20.830   9.180  -8.594  1.00  0.00     0.055 A 
HETATM    4  C6  UNL     1      19.536   9.248  -8.133  1.00  0.00     0.204 A 
HETATM    5  O3  UNL     1      19.416   8.418  -7.131  1.00  0.00    -0.281 OA
HETATM    6  O4  UNL     1      18.837  10.127  -8.853  1.00  0.00    -0.284 OA
HETATM    7  C7  UNL     1      19.629  10.648  -9.786  1.00  0.00     0.119 A 
HETATM    8  C8  UNL     1      19.364  11.601 -10.779  1.00  0.00     0.040 A 
HETATM    9  C18 UNL     1      20.415  11.924 -11.596  1.00  0.00     0.091 A 
HETATM   10  C19 UNL     1      21.672  11.322 -11.424  1.00  0.00     0.246 A 
HETATM   11  O6  UNL     1      22.588  11.678 -12.218  1.00  0.00    -0.268 OA
HETATM   12  N1  UNL     1      21.883  10.414 -10.459  1.00  0.00    -0.320 N 
ATOM     13  H1  UNL     1      22.802   9.986 -10.347  1.00  0.00     0.169 HD
HETATM   14  C20 UNL     1      20.872  10.074  -9.642  1.00  0.00     0.085 A 
ENDROOT
BRANCH   8  15
HETATM   15  C9  UNL     1      18.042  12.149 -10.899  1.00  0.00     0.089 C 
BRANCH  15  16
HETATM   16  O5  UNL     1      17.926  13.429 -10.693  1.00  0.00    -0.359 OA
ATOM     17  H5  UNL     1      17.045  13.783 -10.725  1.00  0.00     0.217 HD
ENDBRANCH  15  16
BRANCH  15  18
HETATM   18  C10 UNL     1      16.812  11.476 -11.213  1.00  0.00    -0.001 A 
HETATM   19  C11 UNL     1      15.859  12.000 -12.055  1.00  0.00     0.022 A 
HETATM   20  C12 UNL     1      14.730  11.234 -12.319  1.00  0.00    -0.039 A 
HETATM   21  C13 UNL     1      13.662  11.767 -13.242  1.00  0.00     0.050 C 
HETATM   22  C14 UNL     1      14.547   9.985 -11.767  1.00  0.00     0.045 A 
HETATM   23 CL1  UNL     1      13.103   9.015 -12.126  1.00  0.00    -0.083 Cl
HETATM   24  C15 UNL     1      15.487   9.445 -10.921  1.00  0.00    -0.039 A 
HETATM   25  C16 UNL     1      15.249   8.100 -10.339  1.00  0.00     0.050 C 
HETATM   26  C17 UNL     1      16.606  10.212 -10.664  1.00  0.00     0.022 A 
ENDBRANCH  15  18
ENDBRANCH   8  15
BRANCH   1  27
HETATM   27  C2  UNL     1      20.770   6.802  -5.841  1.00  0.00     0.317 C 
HETATM   28  O2  UNL     1      21.701   5.942  -5.973  1.00  0.00    -0.257 OA
BRANCH  27  29
HETATM   29  O1  UNL     1      20.009   6.732  -4.693  1.00  0.00    -0.321 OA
HETATM   30  C1  UNL     1      18.635   6.330  -4.832  1.00  0.00     0.213 C 
ENDBRANCH  27  29
ENDBRANCH   1  27
TORSDOF 5
ENDMDL
MODEL 4
REMARK VINA RESULT: -8.705490005      3.560      5.467
REMARK  5 active torsions:
REMARK  status: ('A' for Active; 'I' for Inactive)
REMARK    1  A    between atoms: O1_2  and  C2_3 
REMARK    2  A    between atoms: C2_3  and  C3_5 
REMARK    3  A    between atoms: C8_12  and  C9_13 
REMARK    4  A    between atoms: C9_13  and  O5_14 
REMARK    5  A    between atoms: C9_13  and  C10_16 
ROOT
HETATM    1  C3  UNL     1      20.546   7.832  -6.859  1.00  0.00     0.154 A 
HETATM    2  C4  UNL     1      19.468   8.580  -7.286  1.00  0.00     0.062 A 
HETATM    3  C5  UNL     1      19.913   9.303  -8.374  1.00  0.00     0.055 A 
HETATM    4  C6  UNL     1      21.233   8.970  -8.568  1.00  0.00     0.204 A 
HETATM    5  O3  UNL     1      21.572   8.100  -7.655  1.00  0.00    -0.281 OA
HETATM    6  O4  UNL     1      21.727   9.639  -9.611  1.00  0.00    -0.284 OA
HETATM    7  C7  UNL     1      20.773  10.413 -10.120  1.00  0.00     0.119 A 
HETATM    8  C8  UNL     1      20.799  11.298 -11.207  1.00  0.00     0.040 A 
HETATM    9  C18 UNL     1      19.627  11.956 -11.471  1.00  0.00     0.091 A 
HETATM   10  C19 UNL     1      18.484  11.737 -10.686  1.00  0.00     0.246 A 
HETATM   11  O6  UNL     1      17.444  12.382 -10.998  1.00  0.00    -0.268 OA
HETATM   12  N1  UNL     1      18.503  10.880  -9.654  1.00  0.00    -0.320 N 
ATOM     13  H1  UNL     1      17.664  10.731  -9.093  1.00  0.00     0.169 HD
HETATM   14  C20 UNL     1      19.637  10.219  -9.366  1.00  0.00     0.085 A 
ENDROOT
BRANCH   8  15
HETATM   15  C9  UNL     1      22.018  11.480 -11.942  1.00  0.00     0.089 C 
BRANCH  15  16
HETATM   16  O5  UNL     1      22.651  10.397 -12.289  1.00  0.00    -0.359 OA
ATOM     17  H5  UNL     1      22.570  10.132 -13.197  1.00  0.00     0.217 HD
ENDBRANCH  15  16
BRANCH  15  18
HETATM   18  C10 UNL     1      22.650  12.703 -12.353  1.00  0.00    -0.001 A 
HETATM   19  C11 UNL     1      22.406  13.917 -11.754  1.00  0.00     0.022 A 
HETATM   20  C12 UNL     1      23.114  15.023 -12.208  1.00  0.00    -0.039 A 
HETATM   21  C13 UNL     1      22.881  16.373 -11.575  1.00  0.00     0.050 C 
HETATM   22  C14 UNL     1      24.037  14.933 -13.226  1.00  0.00     0.045 A 
HETATM   23 CL1  UNL     1      24.942  16.356 -13.786  1.00  0.00    -0.083 Cl
HETATM   24  C15 UNL     1      24.294  13.729 -13.840  1.00  0.00    -0.039 A 
HETATM   25  C16 UNL     1      25.291  13.676 -14.939  1.00  0.00     0.050 C 
HETATM   26  C17 UNL     1      23.587  12.635 -13.382  1.00  0.00     0.022 A 
ENDBRANCH  15  18
ENDBRANCH   8  15
BRANCH   1  27
HETATM   27  C2  UNL     1      20.591   6.897  -5.731  1.00  0.00     0.317 C 
HETATM   28  O2  UNL     1      21.482   5.986  -5.716  1.00  0.00    -0.257 OA
BRANCH  27  29
HETATM   29  O1  UNL     1      19.716   6.936  -4.666  1.00  0.00    -0.321 OA
HETATM   30  C1  UNL     1      18.417   6.346  -4.853  1.00  0.00     0.213 C 
ENDBRANCH  27  29
ENDBRANCH   1  27
TORSDOF 5
ENDMDL
MODEL 5
REMARK VINA RESULT: -8.649252172      3.485      5.020
REMARK  5 active torsions:
REMARK  status: ('A' for Active; 'I' for Inactive)
REMARK    1  A    between atoms: O1_2  and  C2_3 
REMARK    2  A    between atoms: C2_3  and  C3_5 
REMARK    3  A    between atoms: C8_12  and  C9_13 
REMARK    4  A    between atoms: C9_13  and  O5_14 
REMARK    5  A    between atoms: C9_13  and  C10_16 
ROOT
HETATM    1  C3  UNL     1      20.646   7.849  -6.996  1.00  0.00     0.154 A 
HETATM    2  C4  UNL     1      19.476   8.347  -7.532  1.00  0.00     0.062 A 
HETATM    3  C5  UNL     1      19.856   9.210  -8.541  1.00  0.00     0.055 A 
HETATM    4  C6  UNL     1      21.231   9.203  -8.581  1.00  0.00     0.204 A 
HETATM    5  O3  UNL     1      21.662   8.389  -7.655  1.00  0.00    -0.281 OA
HETATM    6  O4  UNL     1      21.665  10.023  -9.540  1.00  0.00    -0.284 OA
HETATM    7  C7  UNL     1      20.619  10.579 -10.141  1.00  0.00     0.119 A 
HETATM    8  C8  UNL     1      20.555  11.502 -11.195  1.00  0.00     0.040 A 
HETATM    9  C18 UNL     1      19.298  11.883 -11.583  1.00  0.00     0.091 A 
HETATM   10  C19 UNL     1      18.159  11.363 -10.948  1.00  0.00     0.246 A 
HETATM   11  O6  UNL     1      17.038  11.764 -11.368  1.00  0.00    -0.268 OA
HETATM   12  N1  UNL     1      18.265  10.481  -9.943  1.00  0.00    -0.320 N 
ATOM     13  H1  UNL     1      17.427  10.112  -9.491  1.00  0.00     0.169 HD
HETATM   14  C20 UNL     1      19.484  10.088  -9.536  1.00  0.00     0.085 A 
ENDROOT
BRANCH   8  15
HETATM   15  C9  UNL     1      21.771  12.000 -11.773  1.00  0.00     0.089 C 
BRANCH  15  16
HETATM   16  O5  UNL     1      22.627  11.107 -12.179  1.00  0.00    -0.359 OA
ATOM     17  H5  UNL     1      23.486  11.428 -12.425  1.00  0.00     0.217 HD
ENDBRANCH  15  16
BRANCH  15  18
HETATM   18  C10 UNL     1      22.187  13.362 -11.965  1.00  0.00    -0.001 A 
HETATM   19  C11 UNL     1      23.190  13.731 -12.829  1.00  0.00     0.022 A 
HETATM   20  C12 UNL     1      23.471  15.085 -12.965  1.00  0.00    -0.039 A 
HETATM   21  C13 UNL     1      24.561  15.533 -13.907  1.00  0.00     0.050 C 
HETATM   22  C14 UNL     1      22.780  16.049 -12.264  1.00  0.00     0.045 A 
HETATM   23 CL1  UNL     1      23.145  17.776 -12.458  1.00  0.00    -0.083 Cl
HETATM   24  C15 UNL     1      21.775  15.701 -11.392  1.00  0.00    -0.039 A 
HETATM   25  C16 UNL     1      21.060  16.769 -10.650  1.00  0.00     0.050 C 
HETATM   26  C17 UNL     1      21.502  14.353 -11.265  1.00  0.00     0.022 A 
ENDBRANCH  15  18
ENDBRANCH   8  15
BRANCH   1  27
HETATM   27  C2  UNL     1      20.784   6.891  -5.895  1.00  0.00     0.317 C 
HETATM   28  O2  UNL     1      21.639   5.952  -5.994  1.00  0.00    -0.257 OA
BRANCH  27  29
HETATM   29  O1  UNL     1      20.035   6.939  -4.738  1.00  0.00    -0.321 OA
HETATM   30  C1  UNL     1      18.711   6.379  -4.782  1.00  0.00     0.213 C 
ENDBRANCH  27  29
ENDBRANCH   1  27
TORSDOF 5
ENDMDL
