MODEL 1
REMARK VINA RESULT: -9.138807097      0.000      0.000
REMARK  4 active torsions:
REMARK  status: ('A' for Active; 'I' for Inactive)
REMARK    1  A    between atoms: C4_4  and  C5_5 
REMARK    2  A    between atoms: C5_5  and  O1_8 
REMARK    3  A    between atoms: C12_15  and  C13_16 
REMARK    4  A    between atoms: N1_17  and  N2_19 
ROOT
HETATM    1  C1  UNL     1       9.990   7.983 -14.438  1.00  0.00     0.051 C 
HETATM    2  C2  UNL     1      11.104   7.014 -14.594  1.00  0.00    -0.027 A 
HETATM    3  C3  UNL     1      11.791   6.924 -15.790  1.00  0.00     0.019 A 
HETATM    4  C4  UNL     1      12.836   6.032 -15.991  1.00  0.00    -0.023 A 
HETATM    5  C8  UNL     1      13.175   5.221 -14.937  1.00  0.00     0.026 A 
HETATM    6  C9  UNL     1      12.522   5.267 -13.713  1.00  0.00     0.021 A 
HETATM    7  C10 UNL     1      11.494   6.173 -13.578  1.00  0.00     0.087 A 
HETATM    8  O2  UNL     1      10.861   6.195 -12.346  1.00  0.00    -0.345 OA
HETATM    9  C11 UNL     1      11.202   5.377 -11.251  1.00  0.00     0.217 A 
HETATM   10  C12 UNL     1      12.300   4.449 -11.468  1.00  0.00     0.005 A 
HETATM   11  C19 UNL     1      12.919   4.397 -12.628  1.00  0.00     0.057 A 
HETATM   12 CL1  UNL     1      14.243   3.262 -12.847  1.00  0.00    -0.083 Cl
ENDROOT
BRANCH  10  13
HETATM   13  C13 UNL     1      12.735   3.537 -10.384  1.00  0.00     0.118 C 
HETATM   14  N1  UNL     1      12.762   3.852  -9.183  1.00  0.00    -0.311 N 
ATOM     15  H1  UNL     1      13.096   3.066  -8.624  1.00  0.00     0.186 HD
BRANCH  14  16
HETATM   16  N2  UNL     1      12.493   4.892  -8.393  1.00  0.00    -0.309 N 
HETATM   17  C14 UNL     1      11.400   5.176  -7.805  1.00  0.00     0.003 C 
HETATM   18  C15 UNL     1      11.176   6.360  -6.940  1.00  0.00     0.054 C 
HETATM   19  C18 UNL     1      10.077   4.466  -7.788  1.00  0.00     0.054 C 
HETATM   20  C16 UNL     1       9.811   6.808  -7.491  1.00  0.00     0.006 C 
HETATM   21  C17 UNL     1       9.051   5.523  -7.533  1.00  0.00     0.006 C 
ATOM     22  H2  UNL     1      13.262   5.544  -8.240  1.00  0.00     0.186 HD
ENDBRANCH  14  16
ENDBRANCH  10  13
BRANCH   4  23
HETATM   23  C5  UNL     1      13.594   5.906 -17.248  1.00  0.00     0.078 C 
HETATM   24  C6  UNL     1      13.200   4.663 -17.993  1.00  0.00     0.051 C 
HETATM   25  C7  UNL     1      15.078   5.982 -17.019  1.00  0.00     0.051 C 
BRANCH  23  26
HETATM   26  O1  UNL     1      13.261   7.027 -18.032  1.00  0.00    -0.386 OA
ATOM     27  H1  UNL     1      13.215   6.724 -18.932  1.00  0.00     0.211 HD
ENDBRANCH  23  26
ENDBRANCH   4  23
TORSDOF 4
ENDMDL
MODEL 2
REMARK VINA RESULT: -9.071302336      1.064      1.438
REMARK  4 active torsions:
REMARK  status: ('A' for Active; 'I' for Inactive)
REMARK    1  A    between atoms: C4_4  and  C5_5 
REMARK    2  A    between atoms: C5_5  and  O1_8 
REMARK    3  A    between atoms: C12_15  and  C13_16 
REMARK    4  A    between atoms: N1_17  and  N2_19 
ROOT
HETATM    1  C1  UNL     1      10.030   7.828 -14.339  1.00  0.00     0.051 C 
HETATM    2  C2  UNL     1      11.170   6.898 -14.541  1.00  0.00    -0.027 A 
HETATM    3  C3  UNL     1      11.814   6.834 -15.762  1.00  0.00     0.019 A 
HETATM    4  C4  UNL     1      12.880   5.978 -16.005  1.00  0.00    -0.023 A 
HETATM    5  C8  UNL     1      13.286   5.178 -14.967  1.00  0.00     0.026 A 
HETATM    6  C9  UNL     1      12.679   5.199 -13.719  1.00  0.00     0.021 A 
HETATM    7  C10 UNL     1      11.626   6.070 -13.543  1.00  0.00     0.087 A 
HETATM    8  O2  UNL     1      11.040   6.067 -12.287  1.00  0.00    -0.345 OA
HETATM    9  C11 UNL     1      11.450   5.260 -11.208  1.00  0.00     0.217 A 
HETATM   10  C12 UNL     1      12.570   4.370 -11.469  1.00  0.00     0.005 A 
HETATM   11  C19 UNL     1      13.146   4.341 -12.653  1.00  0.00     0.057 A 
HETATM   12 CL1  UNL     1      14.499   3.253 -12.924  1.00  0.00    -0.083 Cl
ENDROOT
BRANCH  10  13
HETATM   13  C13 UNL     1      13.076   3.471 -10.406  1.00  0.00     0.118 C 
HETATM   14  N1  UNL     1      12.405   3.114  -9.424  1.00  0.00    -0.311 N 
ATOM     15  H1  UNL     1      12.960   2.500  -8.827  1.00  0.00     0.186 HD
BRANCH  14  16
HETATM   16  N2  UNL     1      11.188   3.278  -8.903  1.00  0.00    -0.309 N 
HETATM   17  C14 UNL     1      10.875   3.668  -7.732  1.00  0.00     0.003 C 
HETATM   18  C15 UNL     1       9.491   3.824  -7.223  1.00  0.00     0.054 C 
HETATM   19  C18 UNL     1      11.733   4.070  -6.566  1.00  0.00     0.054 C 
HETATM   20  C16 UNL     1       9.662   3.154  -5.848  1.00  0.00     0.006 C 
HETATM   21  C17 UNL     1      10.920   3.781  -5.345  1.00  0.00     0.006 C 
ATOM     22  H2  UNL     1      10.407   3.064  -9.523  1.00  0.00     0.186 HD
ENDBRANCH  14  16
ENDBRANCH  10  13
BRANCH   4  23
HETATM   23  C5  UNL     1      13.593   5.880 -17.290  1.00  0.00     0.078 C 
HETATM   24  C6  UNL     1      13.184   4.647 -18.042  1.00  0.00     0.051 C 
HETATM   25  C7  UNL     1      15.084   5.966 -17.113  1.00  0.00     0.051 C 
BRANCH  23  26
HETATM   26  O1  UNL     1      13.224   7.011 -18.042  1.00  0.00    -0.386 OA
ATOM     27  H1  UNL     1      12.659   7.534 -17.485  1.00  0.00     0.211 HD
ENDBRANCH  23  26
ENDBRANCH   4  23
TORSDOF 4
ENDMDL
MODEL 3
REMARK VINA RESULT: -9.066484972      0.962      1.025
REMARK  4 active torsions:
REMARK  status: ('A' for Active; 'I' for Inactive)
REMARK    1  A    between atoms: C4_4  and  C5_5 
REMARK    2  A    between atoms: C5_5  and  O1_8 
REMARK    3  A    between atoms: C12_15  and  C13_16 
REMARK    4  A    between atoms: N1_17  and  N2_19 
ROOT
HETATM    1  C1  UNL     1       9.681   7.788 -13.661  1.00  0.00     0.051 C 
HETATM    2  C2  UNL     1      10.819   6.838 -13.743  1.00  0.00    -0.027 A 
HETATM    3  C3  UNL     1      11.576   6.749 -14.896  1.00  0.00     0.019 A 
HETATM    4  C4  UNL     1      12.647   5.875 -15.027  1.00  0.00    -0.023 A 
HETATM    5  C8  UNL     1      12.938   5.081 -13.946  1.00  0.00     0.026 A 
HETATM    6  C9  UNL     1      12.214   5.125 -12.763  1.00  0.00     0.021 A 
HETATM    7  C10 UNL     1      11.164   6.015 -12.697  1.00  0.00     0.087 A 
HETATM    8  O2  UNL     1      10.460   6.036 -11.503  1.00  0.00    -0.345 OA
HETATM    9  C11 UNL     1      10.751   5.235 -10.382  1.00  0.00     0.217 A 
HETATM   10  C12 UNL     1      11.877   4.325 -10.525  1.00  0.00     0.005 A 
HETATM   11  C19 UNL     1      12.563   4.273 -11.647  1.00  0.00     0.057 A 
HETATM   12 CL1  UNL     1      13.917   3.161 -11.777  1.00  0.00    -0.083 Cl
ENDROOT
BRANCH  10  13
HETATM   13  C13 UNL     1      12.263   3.431  -9.409  1.00  0.00     0.118 C 
HETATM   14  N1  UNL     1      12.392   3.809  -8.233  1.00  0.00    -0.311 N 
ATOM     15  H1  UNL     1      12.665   3.023  -7.642  1.00  0.00     0.186 HD
BRANCH  14  16
HETATM   16  N2  UNL     1      12.286   4.917  -7.497  1.00  0.00    -0.309 N 
HETATM   17  C14 UNL     1      11.266   5.359  -6.877  1.00  0.00     0.003 C 
HETATM   18  C15 UNL     1      11.225   6.608  -6.078  1.00  0.00     0.054 C 
HETATM   19  C18 UNL     1       9.873   4.811  -6.755  1.00  0.00     0.054 C 
HETATM   20  C16 UNL     1       9.892   7.181  -6.592  1.00  0.00     0.006 C 
HETATM   21  C17 UNL     1       8.990   5.994  -6.519  1.00  0.00     0.006 C 
ATOM     22  H2  UNL     1      13.131   5.481  -7.421  1.00  0.00     0.186 HD
ENDBRANCH  14  16
ENDBRANCH  10  13
BRANCH   4  23
HETATM   23  C5  UNL     1      13.478   5.750 -16.236  1.00  0.00     0.078 C 
HETATM   24  C6  UNL     1      12.817   4.871 -17.258  1.00  0.00     0.051 C 
HETATM   25  C7  UNL     1      14.874   5.293 -15.913  1.00  0.00     0.051 C 
BRANCH  23  26
HETATM   26  O1  UNL     1      13.607   7.046 -16.771  1.00  0.00    -0.386 OA
ATOM     27  H1  UNL     1      13.529   6.959 -17.714  1.00  0.00     0.211 HD
ENDBRANCH  23  26
ENDBRANCH   4  23
TORSDOF 4
ENDMDL
MODEL 4
REMARK VINA RESULT: -9.042036000      4.412      7.401
REMARK  4 active torsions:
REMARK  status: ('A' for Active; 'I' for Inactive)
REMARK    1  A    between atoms: C4_4  and  C5_5 
REMARK    2  A    between atoms: C5_5  and  O1_8 
REMARK    3  A    between atoms: C12_15  and  C13_16 
REMARK    4  A    between atoms: N1_17  and  N2_19 
ROOT
HETATM    1  C1  UNL     1      14.470   6.270 -18.181  1.00  0.00     0.051 C 
HETATM    2  C2  UNL     1      13.834   6.140 -16.845  1.00  0.00    -0.027 A 
HETATM    3  C3  UNL     1      14.414   5.354 -15.867  1.00  0.00     0.019 A 
HETATM    4  C4  UNL     1      13.859   5.194 -14.604  1.00  0.00    -0.023 A 
HETATM    5  C8  UNL     1      12.686   5.860 -14.351  1.00  0.00     0.026 A 
HETATM    6  C9  UNL     1      12.058   6.664 -15.292  1.00  0.00     0.021 A 
HETATM    7  C10 UNL     1      12.660   6.780 -16.526  1.00  0.00     0.087 A 
HETATM    8  O2  UNL     1      12.010   7.589 -17.445  1.00  0.00    -0.345 OA
HETATM    9  C11 UNL     1      10.812   8.287 -17.198  1.00  0.00     0.217 A 
HETATM   10  C12 UNL     1      10.239   8.118 -15.872  1.00  0.00     0.005 A 
HETATM   11  C19 UNL     1      10.826   7.352 -14.977  1.00  0.00     0.057 A 
HETATM   12 CL1  UNL     1      10.101   7.178 -13.386  1.00  0.00    -0.083 Cl
ENDROOT
BRANCH  10  13
HETATM   13  C13 UNL     1       8.975   8.801 -15.510  1.00  0.00     0.118 C 
HETATM   14  N1  UNL     1       8.826  10.034 -15.523  1.00  0.00    -0.311 N 
ATOM     15  H1  UNL     1       7.877  10.274 -15.236  1.00  0.00     0.186 HD
BRANCH  14  16
HETATM   16  N2  UNL     1       9.515  11.144 -15.794  1.00  0.00    -0.309 N 
HETATM   17  C14 UNL     1       9.082  12.337 -15.899  1.00  0.00     0.003 C 
HETATM   18  C15 UNL     1       9.914  13.525 -16.206  1.00  0.00     0.054 C 
HETATM   19  C18 UNL     1       7.697  12.898 -15.755  1.00  0.00     0.054 C 
HETATM   20  C16 UNL     1       9.008  14.190 -17.257  1.00  0.00     0.006 C 
HETATM   21  C17 UNL     1       7.668  14.131 -16.600  1.00  0.00     0.006 C 
ATOM     22  H2  UNL     1      10.517  11.021 -15.936  1.00  0.00     0.186 HD
ENDBRANCH  14  16
ENDBRANCH  10  13
BRANCH   4  23
HETATM   23  C5  UNL     1      14.443   4.367 -13.535  1.00  0.00     0.078 C 
HETATM   24  C6  UNL     1      13.492   4.222 -12.383  1.00  0.00     0.051 C 
HETATM   25  C7  UNL     1      15.788   4.882 -13.099  1.00  0.00     0.051 C 
BRANCH  23  26
HETATM   26  O1  UNL     1      14.675   3.095 -14.092  1.00  0.00    -0.386 OA
ATOM     27  H1  UNL     1      15.589   2.891 -13.931  1.00  0.00     0.211 HD
ENDBRANCH  23  26
ENDBRANCH   4  23
TORSDOF 4
ENDMDL
MODEL 5
REMARK VINA RESULT: -9.009634511      3.260      4.274
REMARK  4 active torsions:
REMARK  status: ('A' for Active; 'I' for Inactive)
REMARK    1  A    between atoms: C4_4  and  C5_5 
REMARK    2  A    between atoms: C5_5  and  O1_8 
REMARK    3  A    between atoms: C12_15  and  C13_16 
REMARK    4  A    between atoms: N1_17  and  N2_19 
ROOT
HETATM    1  C1  UNL     1      13.484   3.730 -11.806  1.00  0.00     0.051 C 
HETATM    2  C2  UNL     1      12.939   4.600 -12.879  1.00  0.00    -0.027 A 
HETATM    3  C3  UNL     1      13.478   4.563 -14.152  1.00  0.00     0.019 A 
HETATM    4  C4  UNL     1      13.010   5.357 -15.189  1.00  0.00    -0.023 A 
HETATM    5  C8  UNL     1      11.967   6.204 -14.904  1.00  0.00     0.026 A 
HETATM    6  C9  UNL     1      11.386   6.284 -13.647  1.00  0.00     0.021 A 
HETATM    7  C10 UNL     1      11.897   5.469 -12.660  1.00  0.00     0.087 A 
HETATM    8  O2  UNL     1      11.297   5.572 -11.416  1.00  0.00    -0.345 OA
HETATM    9  C11 UNL     1      10.220   6.428 -11.109  1.00  0.00     0.217 A 
HETATM   10  C12 UNL     1       9.733   7.254 -12.202  1.00  0.00     0.005 A 
HETATM   11  C19 UNL     1      10.284   7.186 -13.396  1.00  0.00     0.057 A 
HETATM   12 CL1  UNL     1       9.662   8.201 -14.688  1.00  0.00    -0.083 Cl
ENDROOT
BRANCH  10  13
HETATM   13  C13 UNL     1       8.610   8.196 -11.985  1.00  0.00     0.118 C 
HETATM   14  N1  UNL     1       8.740   9.326 -11.489  1.00  0.00    -0.311 N 
ATOM     15  H1  UNL     1       7.833   9.791 -11.436  1.00  0.00     0.186 HD
BRANCH  14  16
HETATM   16  N2  UNL     1       9.691  10.126 -11.002  1.00  0.00    -0.309 N 
HETATM   17  C14 UNL     1      10.134  10.193  -9.810  1.00  0.00     0.003 C 
HETATM   18  C15 UNL     1      11.197  11.115  -9.343  1.00  0.00     0.054 C 
HETATM   19  C18 UNL     1       9.760   9.423  -8.576  1.00  0.00     0.054 C 
HETATM   20  C16 UNL     1      10.539  11.603  -8.039  1.00  0.00     0.006 C 
HETATM   21  C17 UNL     1      10.073  10.324  -7.425  1.00  0.00     0.006 C 
ATOM     22  H2  UNL     1      10.118  10.765 -11.671  1.00  0.00     0.186 HD
ENDBRANCH  14  16
ENDBRANCH  10  13
BRANCH   4  23
HETATM   23  C5  UNL     1      13.554   5.348 -16.557  1.00  0.00     0.078 C 
HETATM   24  C6  UNL     1      15.055   5.374 -16.542  1.00  0.00     0.051 C 
HETATM   25  C7  UNL     1      12.978   6.453 -17.399  1.00  0.00     0.051 C 
BRANCH  23  26
HETATM   26  O1  UNL     1      13.129   4.144 -17.151  1.00  0.00    -0.386 OA
ATOM     27  H1  UNL     1      12.904   4.350 -18.051  1.00  0.00     0.211 HD
ENDBRANCH  23  26
ENDBRANCH   4  23
TORSDOF 4
ENDMDL
