MODEL 1
REMARK VINA RESULT: -7.194120202      0.000      0.000
REMARK  19 active torsions:
REMARK  status: ('A' for Active; 'I' for Inactive)
REMARK    1  A    between atoms: C2_2  and  O2_4 
REMARK    2  A    between atoms: O2_4  and  C3_5 
REMARK    3  A    between atoms: C4_6  and  O3_7 
REMARK    4  A    between atoms: O3_7  and  C5_8 
REMARK    5  A    between atoms: C7_11  and  O5_12 
REMARK    6  A    between atoms: C7_11  and  C11_21 
REMARK    7  A    between atoms: O5_12  and  C8_13 
REMARK    8  A    between atoms: C8_13  and  C9_15 
REMARK    9  A    between atoms: C9_15  and  C10_16 
REMARK   10  A    between atoms: C10_16  and  N1_17 
REMARK   11  A    between atoms: C13_26  and  C14_27 
REMARK   12  A    between atoms: C16_31  and  O12_32 
REMARK   13  A    between atoms: C18_35  and  O13_36 
REMARK   14  A    between atoms: C18_35  and  C19_38 
REMARK   15  A    between atoms: C19_38  and  O14_39 
REMARK   16  A    between atoms: C20_41  and  N2_42 
REMARK       I    between atoms: N2_42  and  C21_43 
REMARK   17  A    between atoms: C21_43  and  C22_45 
REMARK   18  A    between atoms: C23_46  and  C24_47 
REMARK   19  A    between atoms: C26_52  and  O19_53 
ROOT
HETATM    1  C3  UNL     1     -63.130  27.301 -27.918  1.00  0.00     0.175 C 
HETATM    2  C4  UNL     1     -61.708  27.129 -28.147  1.00  0.00     0.210 C 
HETATM    3  C7  UNL     1     -61.195  26.009 -28.998  1.00  0.00     0.208 C 
HETATM    4  C12 UNL     1     -61.738  26.001 -30.390  1.00  0.00     0.222 C 
HETATM    5  O9  UNL     1     -63.019  26.259 -30.578  1.00  0.00    -0.362 OA
HETATM    6  C13 UNL     1     -63.646  27.416 -30.398  1.00  0.00     0.192 C 
HETATM    7  C15 UNL     1     -64.132  27.466 -28.986  1.00  0.00     0.096 C 
HETATM    8  C16 UNL     1     -65.253  26.493 -28.698  1.00  0.00     0.131 C 
HETATM    9  C17 UNL     1     -66.206  26.243 -29.792  1.00  0.00     0.075 C 
HETATM   10  C18 UNL     1     -66.168  27.313 -30.801  1.00  0.00     0.117 C 
HETATM   11  C20 UNL     1     -64.808  27.432 -31.403  1.00  0.00     0.249 C 
ENDROOT
BRANCH  11  12
HETATM   12  N2  UNL     1     -64.628  26.594 -32.501  1.00  0.00    -0.399 NA
HETATM   13  C21 UNL     1     -64.451  25.768 -33.576  1.00  0.00     0.311 C 
HETATM   14  O15 UNL     1     -64.886  24.595 -33.636  1.00  0.00    -0.252 OA
BRANCH  13  15
HETATM   15  C22 UNL     1     -63.706  26.235 -34.778  1.00  0.00     0.092 C 
HETATM   16  C23 UNL     1     -62.453  26.340 -35.003  1.00  0.00     0.049 C 
BRANCH  16  17
HETATM   17  C24 UNL     1     -61.289  26.047 -34.180  1.00  0.00     0.140 A 
HETATM   18  O16 UNL     1     -60.801  24.942 -33.706  1.00  0.00    -0.250 OA
HETATM   19  C25 UNL     1     -59.737  25.198 -33.025  1.00  0.00     0.419 A 
HETATM   20  O17 UNL     1     -59.016  24.329 -32.426  1.00  0.00    -0.229 OA
HETATM   21  O18 UNL     1     -59.502  26.483 -33.033  1.00  0.00    -0.229 OA
HETATM   22  C26 UNL     1     -60.425  27.050 -33.728  1.00  0.00     0.223 A 
BRANCH  22  23
HETATM   23  O19 UNL     1     -60.495  28.433 -33.955  1.00  0.00    -0.338 OA
ATOM     24  H19 UNL     1     -60.170  29.140 -33.410  1.00  0.00     0.220 HD
ENDBRANCH  22  23
ENDBRANCH  16  17
ENDBRANCH  13  15
ENDBRANCH  11  12
BRANCH   6  25
HETATM   25  C14 UNL     1     -62.946  28.688 -30.678  1.00  0.00     0.213 C 
HETATM   26  O10 UNL     1     -63.610  29.739 -30.430  1.00  0.00    -0.646 OA
HETATM   27  O11 UNL     1     -61.689  28.887 -31.165  1.00  0.00    -0.646 OA
ENDBRANCH   6  25
BRANCH  10  28
HETATM   28  O13 UNL     1     -66.592  28.552 -30.300  1.00  0.00    -0.384 OA
ATOM     29  H13 UNL     1     -67.005  29.096 -30.961  1.00  0.00     0.210 HD
ENDBRANCH  10  28
BRANCH  10  30
HETATM   30  C19 UNL     1     -67.127  26.904 -31.925  1.00  0.00     0.205 C 
BRANCH  30  31
HETATM   31  O14 UNL     1     -67.323  25.536 -31.787  1.00  0.00    -0.398 OA
ATOM     32  H14 UNL     1     -68.246  25.384 -31.945  1.00  0.00     0.209 HD
ENDBRANCH  30  31
ENDBRANCH  10  30
BRANCH   1  33
HETATM   33  O2  UNL     1     -63.345  28.450 -27.062  1.00  0.00    -0.313 OA
BRANCH  33  34
HETATM   34  C2  UNL     1     -63.934  28.383 -25.832  1.00  0.00     0.255 C 
HETATM   35  C1  UNL     1     -64.034  29.604 -24.984  1.00  0.00     0.126 C 
HETATM   36  O1  UNL     1     -64.384  27.317 -25.420  1.00  0.00    -0.266 OA
ENDBRANCH  33  34
ENDBRANCH   1  33
BRANCH   8  37
HETATM   37  O12 UNL     1     -64.733  25.229 -28.318  1.00  0.00    -0.395 OA
ATOM     38  H12 UNL     1     -64.272  24.825 -29.043  1.00  0.00     0.210 HD
ENDBRANCH   8  37
BRANCH   3  39
HETATM   39  O5  UNL     1     -61.383  24.829 -28.274  1.00  0.00    -0.294 OA
BRANCH  39  40
HETATM   40  C8  UNL     1     -61.597  23.565 -28.701  1.00  0.00     0.261 C 
HETATM   41  O6  UNL     1     -62.685  23.272 -29.207  1.00  0.00    -0.265 OA
BRANCH  40  42
HETATM   42  C9  UNL     1     -60.571  22.470 -28.599  1.00  0.00     0.138 C 
BRANCH  42  43
HETATM   43  C10 UNL     1     -60.290  22.179 -27.132  1.00  0.00     0.239 C 
BRANCH  43  44
HETATM   44  N1  UNL     1     -59.507  23.214 -26.520  1.00  0.00    -0.079 N 
ATOM     45  H13 UNL     1     -58.607  22.858 -26.201  1.00  0.00     0.274 HD
ATOM     46  H12 UNL     1     -59.178  23.887 -27.213  1.00  0.00     0.274 HD
ATOM     47  H11 UNL     1     -60.012  23.676 -25.764  1.00  0.00     0.274 HD
ENDBRANCH  43  44
ENDBRANCH  42  43
ENDBRANCH  40  42
ENDBRANCH  39  40
ENDBRANCH   3  39
BRANCH   3  48
HETATM   48  C11 UNL     1     -59.697  26.200 -29.045  1.00  0.00     0.215 C 
HETATM   49  O7  UNL     1     -59.152  27.078 -29.754  1.00  0.00    -0.646 OA
HETATM   50  O8  UNL     1     -58.850  25.406 -28.296  1.00  0.00    -0.646 OA
ENDBRANCH   3  48
BRANCH   2  51
HETATM   51  O3  UNL     1     -61.074  26.929 -26.849  1.00  0.00    -0.310 OA
BRANCH  51  52
HETATM   52  C5  UNL     1     -60.300  27.850 -26.221  1.00  0.00     0.255 C 
HETATM   53  C6  UNL     1     -60.591  28.126 -24.779  1.00  0.00     0.126 C 
HETATM   54  O4  UNL     1     -59.399  28.424 -26.842  1.00  0.00    -0.266 OA
ENDBRANCH  51  52
ENDBRANCH   2  51
TORSDOF 19
ENDMDL
MODEL 2
REMARK VINA RESULT: -7.132600679      2.026      6.630
REMARK  19 active torsions:
REMARK  status: ('A' for Active; 'I' for Inactive)
REMARK    1  A    between atoms: C2_2  and  O2_4 
REMARK    2  A    between atoms: O2_4  and  C3_5 
REMARK    3  A    between atoms: C4_6  and  O3_7 
REMARK    4  A    between atoms: O3_7  and  C5_8 
REMARK    5  A    between atoms: C7_11  and  O5_12 
REMARK    6  A    between atoms: C7_11  and  C11_21 
REMARK    7  A    between atoms: O5_12  and  C8_13 
REMARK    8  A    between atoms: C8_13  and  C9_15 
REMARK    9  A    between atoms: C9_15  and  C10_16 
REMARK   10  A    between atoms: C10_16  and  N1_17 
REMARK   11  A    between atoms: C13_26  and  C14_27 
REMARK   12  A    between atoms: C16_31  and  O12_32 
REMARK   13  A    between atoms: C18_35  and  O13_36 
REMARK   14  A    between atoms: C18_35  and  C19_38 
REMARK   15  A    between atoms: C19_38  and  O14_39 
REMARK   16  A    between atoms: C20_41  and  N2_42 
REMARK       I    between atoms: N2_42  and  C21_43 
REMARK   17  A    between atoms: C21_43  and  C22_45 
REMARK   18  A    between atoms: C23_46  and  C24_47 
REMARK   19  A    between atoms: C26_52  and  O19_53 
ROOT
HETATM    1  C3  UNL     1     -63.740  26.189 -32.476  1.00  0.00     0.175 C 
HETATM    2  C4  UNL     1     -62.356  26.374 -32.868  1.00  0.00     0.210 C 
HETATM    3  C7  UNL     1     -61.552  27.520 -32.337  1.00  0.00     0.208 C 
HETATM    4  C12 UNL     1     -61.462  27.565 -30.847  1.00  0.00     0.222 C 
HETATM    5  O9  UNL     1     -62.542  27.306 -30.133  1.00  0.00    -0.362 OA
HETATM    6  C13 UNL     1     -63.168  26.142 -30.006  1.00  0.00     0.192 C 
HETATM    7  C15 UNL     1     -64.200  26.049 -31.083  1.00  0.00     0.096 C 
HETATM    8  C16 UNL     1     -65.354  27.009 -30.898  1.00  0.00     0.131 C 
HETATM    9  C17 UNL     1     -65.766  27.285 -29.512  1.00  0.00     0.075 C 
HETATM   10  C18 UNL     1     -65.291  26.244 -28.586  1.00  0.00     0.117 C 
HETATM   11  C20 UNL     1     -63.803  26.149 -28.607  1.00  0.00     0.249 C 
ENDROOT
BRANCH  11  12
HETATM   12  N2  UNL     1     -63.193  27.019 -27.706  1.00  0.00    -0.399 NA
HETATM   13  C21 UNL     1     -62.597  27.873 -26.820  1.00  0.00     0.311 C 
HETATM   14  O15 UNL     1     -63.148  28.297 -25.778  1.00  0.00    -0.252 OA
BRANCH  13  15
HETATM   15  C22 UNL     1     -61.210  28.365 -27.054  1.00  0.00     0.092 C 
HETATM   16  C23 UNL     1     -60.127  27.738 -27.303  1.00  0.00     0.049 C 
BRANCH  16  17
HETATM   17  C24 UNL     1     -59.835  26.320 -27.451  1.00  0.00     0.140 A 
HETATM   18  O16 UNL     1     -60.113  25.282 -26.723  1.00  0.00    -0.250 OA
HETATM   19  C25 UNL     1     -59.634  24.224 -27.280  1.00  0.00     0.419 A 
HETATM   20  O17 UNL     1     -59.735  23.036 -26.818  1.00  0.00    -0.229 OA
HETATM   21  O18 UNL     1     -59.026  24.542 -28.391  1.00  0.00    -0.229 OA
HETATM   22  C26 UNL     1     -59.119  25.816 -28.543  1.00  0.00     0.223 A 
BRANCH  22  23
HETATM   23  O19 UNL     1     -58.578  26.516 -29.633  1.00  0.00    -0.338 OA
ATOM     24  H19 UNL     1     -58.094  27.333 -29.631  1.00  0.00     0.220 HD
ENDBRANCH  22  23
ENDBRANCH  16  17
ENDBRANCH  13  15
ENDBRANCH  11  12
BRANCH   6  25
HETATM   25  C14 UNL     1     -62.395  24.882 -30.015  1.00  0.00     0.213 C 
HETATM   26  O10 UNL     1     -62.786  23.999 -29.193  1.00  0.00    -0.646 OA
HETATM   27  O11 UNL     1     -61.321  24.538 -30.781  1.00  0.00    -0.646 OA
ENDBRANCH   6  25
BRANCH  10  28
HETATM   28  O13 UNL     1     -65.866  24.990 -28.834  1.00  0.00    -0.384 OA
ATOM     29  H13 UNL     1     -65.743  24.698 -29.729  1.00  0.00     0.210 HD
ENDBRANCH  10  28
BRANCH  10  30
HETATM   30  C19 UNL     1     -65.698  26.681 -27.174  1.00  0.00     0.205 C 
BRANCH  30  31
HETATM   31  O14 UNL     1     -65.225  25.699 -26.314  1.00  0.00    -0.398 OA
ATOM     32  H14 UNL     1     -65.576  24.877 -26.633  1.00  0.00     0.209 HD
ENDBRANCH  30  31
ENDBRANCH  10  30
BRANCH   1  33
HETATM   33  O2  UNL     1     -64.275  25.015 -33.136  1.00  0.00    -0.313 OA
BRANCH  33  34
HETATM   34  C2  UNL     1     -65.442  25.005 -33.844  1.00  0.00     0.255 C 
HETATM   35  C1  UNL     1     -65.957  26.263 -34.454  1.00  0.00     0.126 C 
HETATM   36  O1  UNL     1     -66.071  23.959 -33.982  1.00  0.00    -0.266 OA
ENDBRANCH  33  34
ENDBRANCH   1  33
BRANCH   8  37
HETATM   37  O12 UNL     1     -65.062  28.263 -31.491  1.00  0.00    -0.395 OA
ATOM     38  H12 UNL     1     -65.772  28.539 -32.059  1.00  0.00     0.210 HD
ENDBRANCH   8  37
BRANCH   3  39
HETATM   39  O5  UNL     1     -62.045  28.678 -32.944  1.00  0.00    -0.294 OA
BRANCH  39  40
HETATM   40  C8  UNL     1     -62.101  29.949 -32.488  1.00  0.00     0.261 C 
HETATM   41  O6  UNL     1     -63.058  30.301 -31.791  1.00  0.00    -0.265 OA
BRANCH  40  42
HETATM   42  C9  UNL     1     -61.048  30.981 -32.779  1.00  0.00     0.138 C 
BRANCH  42  43
HETATM   43  C10 UNL     1     -61.216  31.484 -34.206  1.00  0.00     0.239 C 
BRANCH  43  44
HETATM   44  N1  UNL     1     -61.222  30.408 -35.155  1.00  0.00    -0.079 N 
ATOM     45  H13 UNL     1     -61.489  29.527 -34.716  1.00  0.00     0.274 HD
ATOM     46  H12 UNL     1     -61.996  30.499 -35.814  1.00  0.00     0.274 HD
ATOM     47  H11 UNL     1     -60.329  30.323 -35.640  1.00  0.00     0.274 HD
ENDBRANCH  43  44
ENDBRANCH  42  43
ENDBRANCH  40  42
ENDBRANCH  39  40
ENDBRANCH   3  39
BRANCH   3  48
HETATM   48  C11 UNL     1     -60.169  27.337 -32.918  1.00  0.00     0.215 C 
HETATM   49  O7  UNL     1     -59.337  26.533 -32.436  1.00  0.00    -0.646 OA
HETATM   50  O8  UNL     1     -59.754  28.057 -34.022  1.00  0.00    -0.646 OA
ENDBRANCH   3  48
BRANCH   2  51
HETATM   51  O3  UNL     1     -62.327  26.540 -34.316  1.00  0.00    -0.310 OA
BRANCH  51  52
HETATM   52  C5  UNL     1     -62.025  25.553 -35.198  1.00  0.00     0.255 C 
HETATM   53  C6  UNL     1     -62.773  25.535 -36.494  1.00  0.00     0.126 C 
HETATM   54  O4  UNL     1     -61.163  24.715 -34.913  1.00  0.00    -0.266 OA
ENDBRANCH  51  52
ENDBRANCH   2  51
TORSDOF 19
ENDMDL
MODEL 3
REMARK VINA RESULT: -6.886271857      1.263      1.465
REMARK  19 active torsions:
REMARK  status: ('A' for Active; 'I' for Inactive)
REMARK    1  A    between atoms: C2_2  and  O2_4 
REMARK    2  A    between atoms: O2_4  and  C3_5 
REMARK    3  A    between atoms: C4_6  and  O3_7 
REMARK    4  A    between atoms: O3_7  and  C5_8 
REMARK    5  A    between atoms: C7_11  and  O5_12 
REMARK    6  A    between atoms: C7_11  and  C11_21 
REMARK    7  A    between atoms: O5_12  and  C8_13 
REMARK    8  A    between atoms: C8_13  and  C9_15 
REMARK    9  A    between atoms: C9_15  and  C10_16 
REMARK   10  A    between atoms: C10_16  and  N1_17 
REMARK   11  A    between atoms: C13_26  and  C14_27 
REMARK   12  A    between atoms: C16_31  and  O12_32 
REMARK   13  A    between atoms: C18_35  and  O13_36 
REMARK   14  A    between atoms: C18_35  and  C19_38 
REMARK   15  A    between atoms: C19_38  and  O14_39 
REMARK   16  A    between atoms: C20_41  and  N2_42 
REMARK       I    between atoms: N2_42  and  C21_43 
REMARK   17  A    between atoms: C21_43  and  C22_45 
REMARK   18  A    between atoms: C23_46  and  C24_47 
REMARK   19  A    between atoms: C26_52  and  O19_53 
ROOT
HETATM    1  C3  UNL     1     -64.086  26.884 -28.046  1.00  0.00     0.175 C 
HETATM    2  C4  UNL     1     -62.702  27.320 -28.056  1.00  0.00     0.210 C 
HETATM    3  C7  UNL     1     -61.699  26.679 -28.965  1.00  0.00     0.208 C 
HETATM    4  C12 UNL     1     -62.058  26.748 -30.414  1.00  0.00     0.222 C 
HETATM    5  O9  UNL     1     -63.308  26.529 -30.774  1.00  0.00    -0.362 OA
HETATM    6  C13 UNL     1     -64.366  27.295 -30.532  1.00  0.00     0.192 C 
HETATM    7  C15 UNL     1     -64.962  26.867 -29.230  1.00  0.00     0.096 C 
HETATM    8  C16 UNL     1     -65.611  25.502 -29.283  1.00  0.00     0.131 C 
HETATM    9  C17 UNL     1     -66.272  25.135 -30.547  1.00  0.00     0.075 C 
HETATM   10  C18 UNL     1     -66.577  26.320 -31.365  1.00  0.00     0.117 C 
HETATM   11  C20 UNL     1     -65.334  27.069 -31.704  1.00  0.00     0.249 C 
ENDROOT
BRANCH  11  12
HETATM   12  N2  UNL     1     -64.724  26.606 -32.869  1.00  0.00    -0.399 NA
HETATM   13  C21 UNL     1     -64.127  26.148 -34.010  1.00  0.00     0.311 C 
HETATM   14  O15 UNL     1     -64.346  25.020 -34.511  1.00  0.00    -0.252 OA
BRANCH  13  15
HETATM   15  C22 UNL     1     -63.149  26.995 -34.749  1.00  0.00     0.092 C 
HETATM   16  C23 UNL     1     -61.875  26.955 -34.802  1.00  0.00     0.049 C 
BRANCH  16  17
HETATM   17  C24 UNL     1     -60.901  26.077 -34.171  1.00  0.00     0.140 A 
HETATM   18  O16 UNL     1     -60.726  24.791 -34.197  1.00  0.00    -0.250 OA
HETATM   19  C25 UNL     1     -59.711  24.479 -33.466  1.00  0.00     0.419 A 
HETATM   20  O17 UNL     1     -59.272  23.293 -33.280  1.00  0.00    -0.229 OA
HETATM   21  O18 UNL     1     -59.195  25.556 -32.938  1.00  0.00    -0.229 OA
HETATM   22  C26 UNL     1     -59.888  26.564 -33.338  1.00  0.00     0.223 A 
BRANCH  22  23
HETATM   23  O19 UNL     1     -59.621  27.892 -32.969  1.00  0.00    -0.338 OA
ATOM     24  H19 UNL     1     -59.997  28.396 -32.257  1.00  0.00     0.220 HD
ENDBRANCH  22  23
ENDBRANCH  16  17
ENDBRANCH  13  15
ENDBRANCH  11  12
BRANCH   6  25
HETATM   25  C14 UNL     1     -64.221  28.766 -30.499  1.00  0.00     0.213 C 
HETATM   26  O10 UNL     1     -65.265  29.406 -30.171  1.00  0.00    -0.646 OA
HETATM   27  O11 UNL     1     -63.124  29.528 -30.771  1.00  0.00    -0.646 OA
ENDBRANCH   6  25
BRANCH  10  28
HETATM   28  O13 UNL     1     -67.514  27.171 -30.764  1.00  0.00    -0.384 OA
ATOM     29  H13 UNL     1     -68.054  26.730 -30.119  1.00  0.00     0.210 HD
ENDBRANCH  10  28
BRANCH  10  30
HETATM   30  C19 UNL     1     -67.175  25.812 -32.682  1.00  0.00     0.205 C 
BRANCH  30  31
HETATM   31  O14 UNL     1     -66.869  24.460 -32.751  1.00  0.00    -0.398 OA
ATOM     32  H14 UNL     1     -66.126  24.328 -32.175  1.00  0.00     0.209 HD
ENDBRANCH  30  31
ENDBRANCH  10  30
BRANCH   1  33
HETATM   33  O2  UNL     1     -64.829  27.663 -27.077  1.00  0.00    -0.313 OA
BRANCH  33  34
HETATM   34  C2  UNL     1     -65.529  27.119 -26.039  1.00  0.00     0.255 C 
HETATM   35  C1  UNL     1     -66.948  26.706 -26.228  1.00  0.00     0.126 C 
HETATM   36  O1  UNL     1     -64.992  26.968 -24.945  1.00  0.00    -0.266 OA
ENDBRANCH  33  34
ENDBRANCH   1  33
BRANCH   8  37
HETATM   37  O12 UNL     1     -64.661  24.485 -29.013  1.00  0.00    -0.395 OA
ATOM     38  H12 UNL     1     -63.777  24.816 -29.119  1.00  0.00     0.210 HD
ENDBRANCH   8  37
BRANCH   3  39
HETATM   39  O5  UNL     1     -61.459  25.397 -28.466  1.00  0.00    -0.294 OA
BRANCH  39  40
HETATM   40  C8  UNL     1     -61.200  24.240 -29.115  1.00  0.00     0.261 C 
HETATM   41  O6  UNL     1     -62.064  23.358 -29.149  1.00  0.00    -0.265 OA
BRANCH  40  42
HETATM   42  C9  UNL     1     -59.901  23.955 -29.816  1.00  0.00     0.138 C 
BRANCH  42  43
HETATM   43  C10 UNL     1     -58.779  23.889 -28.789  1.00  0.00     0.239 C 
BRANCH  43  44
HETATM   44  N1  UNL     1     -59.283  23.724 -27.456  1.00  0.00    -0.079 N 
ATOM     45  H13 UNL     1     -60.203  24.150 -27.352  1.00  0.00     0.274 HD
ATOM     46  H12 UNL     1     -59.534  22.752 -27.273  1.00  0.00     0.274 HD
ATOM     47  H11 UNL     1     -58.630  24.076 -26.756  1.00  0.00     0.274 HD
ENDBRANCH  43  44
ENDBRANCH  42  43
ENDBRANCH  40  42
ENDBRANCH  39  40
ENDBRANCH   3  39
BRANCH   3  48
HETATM   48  C11 UNL     1     -60.412  27.435 -28.731  1.00  0.00     0.215 C 
HETATM   49  O7  UNL     1     -60.197  28.569 -29.219  1.00  0.00    -0.646 OA
HETATM   50  O8  UNL     1     -59.400  26.902 -27.955  1.00  0.00    -0.646 OA
ENDBRANCH   3  48
BRANCH   2  51
HETATM   51  O3  UNL     1     -62.168  27.118 -26.714  1.00  0.00    -0.310 OA
BRANCH  51  52
HETATM   52  C5  UNL     1     -61.848  28.119 -25.855  1.00  0.00     0.255 C 
HETATM   53  C6  UNL     1     -60.624  27.938 -25.012  1.00  0.00     0.126 C 
HETATM   54  O4  UNL     1     -62.558  29.128 -25.793  1.00  0.00    -0.266 OA
ENDBRANCH  51  52
ENDBRANCH   2  51
TORSDOF 19
ENDMDL
MODEL 4
REMARK VINA RESULT: -6.845167220      2.253      6.853
REMARK  19 active torsions:
REMARK  status: ('A' for Active; 'I' for Inactive)
REMARK    1  A    between atoms: C2_2  and  O2_4 
REMARK    2  A    between atoms: O2_4  and  C3_5 
REMARK    3  A    between atoms: C4_6  and  O3_7 
REMARK    4  A    between atoms: O3_7  and  C5_8 
REMARK    5  A    between atoms: C7_11  and  O5_12 
REMARK    6  A    between atoms: C7_11  and  C11_21 
REMARK    7  A    between atoms: O5_12  and  C8_13 
REMARK    8  A    between atoms: C8_13  and  C9_15 
REMARK    9  A    between atoms: C9_15  and  C10_16 
REMARK   10  A    between atoms: C10_16  and  N1_17 
REMARK   11  A    between atoms: C13_26  and  C14_27 
REMARK   12  A    between atoms: C16_31  and  O12_32 
REMARK   13  A    between atoms: C18_35  and  O13_36 
REMARK   14  A    between atoms: C18_35  and  C19_38 
REMARK   15  A    between atoms: C19_38  and  O14_39 
REMARK   16  A    between atoms: C20_41  and  N2_42 
REMARK       I    between atoms: N2_42  and  C21_43 
REMARK   17  A    between atoms: C21_43  and  C22_45 
REMARK   18  A    between atoms: C23_46  and  C24_47 
REMARK   19  A    between atoms: C26_52  and  O19_53 
ROOT
HETATM    1  C3  UNL     1     -63.836  27.168 -32.911  1.00  0.00     0.175 C 
HETATM    2  C4  UNL     1     -64.865  27.963 -32.268  1.00  0.00     0.210 C 
HETATM    3  C7  UNL     1     -65.098  27.873 -30.792  1.00  0.00     0.208 C 
HETATM    4  C12 UNL     1     -63.896  28.191 -29.963  1.00  0.00     0.222 C 
HETATM    5  O9  UNL     1     -62.720  27.726 -30.339  1.00  0.00    -0.362 OA
HETATM    6  C13 UNL     1     -62.012  28.081 -31.405  1.00  0.00     0.192 C 
HETATM    7  C15 UNL     1     -62.410  27.197 -32.542  1.00  0.00     0.096 C 
HETATM    8  C16 UNL     1     -61.964  25.761 -32.377  1.00  0.00     0.131 C 
HETATM    9  C17 UNL     1     -60.675  25.545 -31.699  1.00  0.00     0.075 C 
HETATM   10  C18 UNL     1     -59.844  26.760 -31.710  1.00  0.00     0.117 C 
HETATM   11  C20 UNL     1     -60.536  27.887 -31.021  1.00  0.00     0.249 C 
ENDROOT
BRANCH  11  12
HETATM   12  N2  UNL     1     -60.293  27.914 -29.650  1.00  0.00    -0.399 NA
HETATM   13  C21 UNL     1     -60.051  27.940 -28.304  1.00  0.00     0.311 C 
HETATM   14  O15 UNL     1     -58.994  28.375 -27.791  1.00  0.00    -0.252 OA
BRANCH  13  15
HETATM   15  C22 UNL     1     -61.068  27.435 -27.340  1.00  0.00     0.092 C 
HETATM   16  C23 UNL     1     -61.577  26.274 -27.186  1.00  0.00     0.049 C 
BRANCH  16  17
HETATM   17  C24 UNL     1     -61.364  25.017 -27.886  1.00  0.00     0.140 A 
HETATM   18  O16 UNL     1     -62.052  24.380 -28.784  1.00  0.00    -0.250 OA
HETATM   19  C25 UNL     1     -61.441  23.291 -29.102  1.00  0.00     0.419 A 
HETATM   20  O17 UNL     1     -61.854  22.436 -29.959  1.00  0.00    -0.229 OA
HETATM   21  O18 UNL     1     -60.334  23.184 -28.418  1.00  0.00    -0.229 OA
HETATM   22  C26 UNL     1     -60.239  24.218 -27.656  1.00  0.00     0.223 A 
BRANCH  22  23
HETATM   23  O19 UNL     1     -59.170  24.443 -26.775  1.00  0.00    -0.338 OA
ATOM     24  H19 UNL     1     -58.276  24.129 -26.834  1.00  0.00     0.220 HD
ENDBRANCH  22  23
ENDBRANCH  16  17
ENDBRANCH  13  15
ENDBRANCH  11  12
BRANCH   6  25
HETATM   25  C14 UNL     1     -62.050  29.478 -31.886  1.00  0.00     0.213 C 
HETATM   26  O10 UNL     1     -61.224  29.758 -32.806  1.00  0.00    -0.646 OA
HETATM   27  O11 UNL     1     -62.847  30.505 -31.478  1.00  0.00    -0.646 OA
ENDBRANCH   6  25
BRANCH  10  28
HETATM   28  O13 UNL     1     -59.452  27.140 -33.000  1.00  0.00    -0.384 OA
ATOM     29  H13 UNL     1     -59.746  28.013 -33.233  1.00  0.00     0.210 HD
ENDBRANCH  10  28
BRANCH  10  30
HETATM   30  C19 UNL     1     -58.579  26.444 -30.904  1.00  0.00     0.205 C 
BRANCH  30  31
HETATM   31  O14 UNL     1     -58.774  25.184 -30.355  1.00  0.00    -0.398 OA
ATOM     32  H14 UNL     1     -57.941  24.733 -30.425  1.00  0.00     0.209 HD
ENDBRANCH  30  31
ENDBRANCH  10  30
BRANCH   1  33
HETATM   33  O2  UNL     1     -63.831  27.445 -34.333  1.00  0.00    -0.313 OA
BRANCH  33  34
HETATM   34  C2  UNL     1     -63.873  26.480 -35.297  1.00  0.00     0.255 C 
HETATM   35  C1  UNL     1     -64.692  25.252 -35.091  1.00  0.00     0.126 C 
HETATM   36  O1  UNL     1     -63.237  26.619 -36.339  1.00  0.00    -0.266 OA
ENDBRANCH  33  34
ENDBRANCH   1  33
BRANCH   8  37
HETATM   37  O12 UNL     1     -62.932  25.018 -31.655  1.00  0.00    -0.395 OA
ATOM     38  H12 UNL     1     -63.397  24.425 -32.233  1.00  0.00     0.210 HD
ENDBRANCH   8  37
BRANCH   3  39
HETATM   39  O5  UNL     1     -65.683  26.627 -30.548  1.00  0.00    -0.294 OA
BRANCH  39  40
HETATM   40  C8  UNL     1     -65.599  25.818 -29.469  1.00  0.00     0.261 C 
HETATM   41  O6  UNL     1     -64.874  24.820 -29.514  1.00  0.00    -0.265 OA
BRANCH  40  42
HETATM   42  C9  UNL     1     -66.348  26.064 -28.188  1.00  0.00     0.138 C 
BRANCH  42  43
HETATM   43  C10 UNL     1     -65.353  26.320 -27.065  1.00  0.00     0.239 C 
BRANCH  43  44
HETATM   44  N1  UNL     1     -65.967  26.220 -25.772  1.00  0.00    -0.079 N 
ATOM     45  H13 UNL     1     -66.663  26.953 -25.635  1.00  0.00     0.274 HD
ATOM     46  H12 UNL     1     -66.579  25.406 -25.714  1.00  0.00     0.274 HD
ATOM     47  H11 UNL     1     -65.277  26.220 -25.022  1.00  0.00     0.274 HD
ENDBRANCH  43  44
ENDBRANCH  42  43
ENDBRANCH  40  42
ENDBRANCH  39  40
ENDBRANCH   3  39
BRANCH   3  48
HETATM   48  C11 UNL     1     -66.188  28.877 -30.500  1.00  0.00     0.215 C 
HETATM   49  O7  UNL     1     -65.969  30.109 -30.432  1.00  0.00    -0.646 OA
HETATM   50  O8  UNL     1     -67.495  28.477 -30.295  1.00  0.00    -0.646 OA
ENDBRANCH   3  48
BRANCH   2  51
HETATM   51  O3  UNL     1     -66.142  27.597 -32.868  1.00  0.00    -0.310 OA
BRANCH  51  52
HETATM   52  C5  UNL     1     -66.800  28.342 -33.793  1.00  0.00     0.255 C 
HETATM   53  C6  UNL     1     -67.880  27.667 -34.579  1.00  0.00     0.126 C 
HETATM   54  O4  UNL     1     -66.495  29.528 -33.958  1.00  0.00    -0.266 OA
ENDBRANCH  51  52
ENDBRANCH   2  51
TORSDOF 19
ENDMDL
MODEL 5
REMARK VINA RESULT: -6.791458558      2.538      7.031
REMARK  19 active torsions:
REMARK  status: ('A' for Active; 'I' for Inactive)
REMARK    1  A    between atoms: C2_2  and  O2_4 
REMARK    2  A    between atoms: O2_4  and  C3_5 
REMARK    3  A    between atoms: C4_6  and  O3_7 
REMARK    4  A    between atoms: O3_7  and  C5_8 
REMARK    5  A    between atoms: C7_11  and  O5_12 
REMARK    6  A    between atoms: C7_11  and  C11_21 
REMARK    7  A    between atoms: O5_12  and  C8_13 
REMARK    8  A    between atoms: C8_13  and  C9_15 
REMARK    9  A    between atoms: C9_15  and  C10_16 
REMARK   10  A    between atoms: C10_16  and  N1_17 
REMARK   11  A    between atoms: C13_26  and  C14_27 
REMARK   12  A    between atoms: C16_31  and  O12_32 
REMARK   13  A    between atoms: C18_35  and  O13_36 
REMARK   14  A    between atoms: C18_35  and  C19_38 
REMARK   15  A    between atoms: C19_38  and  O14_39 
REMARK   16  A    between atoms: C20_41  and  N2_42 
REMARK       I    between atoms: N2_42  and  C21_43 
REMARK   17  A    between atoms: C21_43  and  C22_45 
REMARK   18  A    between atoms: C23_46  and  C24_47 
REMARK   19  A    between atoms: C26_52  and  O19_53 
ROOT
HETATM    1  C3  UNL     1     -61.383  25.938 -32.899  1.00  0.00     0.175 C 
HETATM    2  C4  UNL     1     -61.843  26.245 -34.240  1.00  0.00     0.210 C 
HETATM    3  C7  UNL     1     -63.288  26.523 -34.514  1.00  0.00     0.208 C 
HETATM    4  C12 UNL     1     -63.853  27.658 -33.724  1.00  0.00     0.222 C 
HETATM    5  O9  UNL     1     -63.529  27.774 -32.450  1.00  0.00    -0.362 OA
HETATM    6  C13 UNL     1     -62.341  28.082 -31.942  1.00  0.00     0.192 C 
HETATM    7  C15 UNL     1     -61.582  26.812 -31.730  1.00  0.00     0.096 C 
HETATM    8  C16 UNL     1     -62.145  25.951 -30.621  1.00  0.00     0.131 C 
HETATM    9  C17 UNL     1     -62.727  26.657 -29.468  1.00  0.00     0.075 C 
HETATM   10  C18 UNL     1     -62.254  28.048 -29.387  1.00  0.00     0.117 C 
HETATM   11  C20 UNL     1     -62.619  28.809 -30.617  1.00  0.00     0.249 C 
ENDROOT
BRANCH  11  12
HETATM   12  N2  UNL     1     -63.883  29.391 -30.538  1.00  0.00    -0.399 NA
HETATM   13  C21 UNL     1     -65.121  29.964 -30.458  1.00  0.00     0.311 C 
HETATM   14  O15 UNL     1     -65.336  31.101 -29.977  1.00  0.00    -0.252 OA
BRANCH  13  15
HETATM   15  C22 UNL     1     -66.326  29.243 -30.955  1.00  0.00     0.092 C 
HETATM   16  C23 UNL     1     -66.842  28.128 -30.608  1.00  0.00     0.049 C 
BRANCH  16  17
HETATM   17  C24 UNL     1     -66.455  27.148 -29.605  1.00  0.00     0.140 A 
HETATM   18  O16 UNL     1     -65.930  27.256 -28.422  1.00  0.00    -0.250 OA
HETATM   19  C25 UNL     1     -65.771  26.083 -27.912  1.00  0.00     0.419 A 
HETATM   20  O17 UNL     1     -65.279  25.841 -26.757  1.00  0.00    -0.229 OA
HETATM   21  O18 UNL     1     -66.187  25.173 -28.751  1.00  0.00    -0.229 OA
HETATM   22  C26 UNL     1     -66.616  25.773 -29.805  1.00  0.00     0.223 A 
BRANCH  22  23
HETATM   23  O19 UNL     1     -67.141  25.107 -30.924  1.00  0.00    -0.338 OA
ATOM     24  H19 UNL     1     -66.755  25.001 -31.786  1.00  0.00     0.220 HD
ENDBRANCH  22  23
ENDBRANCH  16  17
ENDBRANCH  13  15
ENDBRANCH  11  12
BRANCH   6  25
HETATM   25  C14 UNL     1     -61.452  29.022 -32.658  1.00  0.00     0.213 C 
HETATM   26  O10 UNL     1     -60.299  29.171 -32.152  1.00  0.00    -0.646 OA
HETATM   27  O11 UNL     1     -61.700  29.751 -33.783  1.00  0.00    -0.646 OA
ENDBRANCH   6  25
BRANCH  10  28
HETATM   28  O13 UNL     1     -60.877  28.143 -29.143  1.00  0.00    -0.384 OA
ATOM     29  H13 UNL     1     -60.411  28.603 -29.832  1.00  0.00     0.210 HD
ENDBRANCH  10  28
BRANCH  10  30
HETATM   30  C19 UNL     1     -62.989  28.704 -28.213  1.00  0.00     0.205 C 
BRANCH  30  31
HETATM   31  O14 UNL     1     -63.014  27.760 -27.196  1.00  0.00    -0.398 OA
ATOM     32  H14 UNL     1     -62.108  27.572 -26.987  1.00  0.00     0.209 HD
ENDBRANCH  30  31
ENDBRANCH  10  30
BRANCH   1  33
HETATM   33  O2  UNL     1     -59.953  25.709 -32.920  1.00  0.00    -0.313 OA
BRANCH  33  34
HETATM   34  C2  UNL     1     -59.348  24.616 -32.369  1.00  0.00     0.255 C 
HETATM   35  C1  UNL     1     -58.579  24.747 -31.100  1.00  0.00     0.126 C 
HETATM   36  O1  UNL     1     -59.438  23.521 -32.917  1.00  0.00    -0.266 OA
ENDBRANCH  33  34
ENDBRANCH   1  33
BRANCH   8  37
HETATM   37  O12 UNL     1     -63.155  25.090 -31.120  1.00  0.00    -0.395 OA
ATOM     38  H12 UNL     1     -64.014  25.390 -30.850  1.00  0.00     0.210 HD
ENDBRANCH   8  37
BRANCH   3  39
HETATM   39  O5  UNL     1     -63.966  25.308 -34.388  1.00  0.00    -0.294 OA
BRANCH  39  40
HETATM   40  C8  UNL     1     -65.173  25.032 -33.847  1.00  0.00     0.261 C 
HETATM   41  O6  UNL     1     -65.231  24.470 -32.749  1.00  0.00    -0.265 OA
BRANCH  40  42
HETATM   42  C9  UNL     1     -66.478  25.376 -34.510  1.00  0.00     0.138 C 
BRANCH  42  43
HETATM   43  C10 UNL     1     -67.229  24.093 -34.840  1.00  0.00     0.239 C 
BRANCH  43  44
HETATM   44  N1  UNL     1     -67.691  23.425 -33.657  1.00  0.00    -0.079 N 
ATOM     45  H13 UNL     1     -68.155  24.073 -33.022  1.00  0.00     0.274 HD
ATOM     46  H12 UNL     1     -68.478  22.810 -33.863  1.00  0.00     0.274 HD
ATOM     47  H11 UNL     1     -66.940  22.920 -33.187  1.00  0.00     0.274 HD
ENDBRANCH  43  44
ENDBRANCH  42  43
ENDBRANCH  40  42
ENDBRANCH  39  40
ENDBRANCH   3  39
BRANCH   3  48
HETATM   48  C11 UNL     1     -63.356  26.854 -35.987  1.00  0.00     0.215 C 
HETATM   49  O7  UNL     1     -62.834  27.886 -36.470  1.00  0.00    -0.646 OA
HETATM   50  O8  UNL     1     -64.004  26.022 -36.879  1.00  0.00    -0.646 OA
ENDBRANCH   3  48
BRANCH   2  51
HETATM   51  O3  UNL     1     -61.516  25.106 -35.089  1.00  0.00    -0.310 OA
BRANCH  51  52
HETATM   52  C5  UNL     1     -60.464  25.061 -35.945  1.00  0.00     0.255 C 
HETATM   53  C6  UNL     1     -60.026  23.713 -36.428  1.00  0.00     0.126 C 
HETATM   54  O4  UNL     1     -59.909  26.108 -36.294  1.00  0.00    -0.266 OA
ENDBRANCH  51  52
ENDBRANCH   2  51
TORSDOF 19
ENDMDL
