MODEL 1
REMARK VINA RESULT: -5.507270114      0.000      0.000
REMARK  7 active torsions:
REMARK  status: ('A' for Active; 'I' for Inactive)
REMARK    1  A    between atoms: N1_1  and  C1_5 
REMARK    2  A    between atoms: C1_5  and  C2_6 
REMARK    3  A    between atoms: N2_8  and  C4_9 
REMARK    4  A    between atoms: C4_9  and  C5_10 
REMARK    5  A    between atoms: C5_10  and  C6_11 
REMARK    6  A    between atoms: C6_11  and  N3_12 
REMARK    7  A    between atoms: N3_12  and  C7_14 
ROOT
HETATM    1  C4  UNL     1     -47.575 -37.568  28.537  1.00  0.00     0.278 C 
ENDROOT
BRANCH   1   2
HETATM    2  N2  UNL     1     -47.130 -37.135  29.831  1.00  0.00     0.099 N 
HETATM    3  C2  UNL     1     -45.969 -37.691  30.451  1.00  0.00     0.276 A 
HETATM    4  C3  UNL     1     -46.058 -36.221  30.026  1.00  0.00     0.310 A 
BRANCH   3   5
HETATM    5  C1  UNL     1     -44.981 -38.506  29.653  1.00  0.00     0.267 C 
BRANCH   5   6
HETATM    6  N1  UNL     1     -45.395 -39.898  29.539  1.00  0.00    -0.077 N 
ATOM      7  H13 UNL     1     -46.350 -40.030  29.871  1.00  0.00     0.274 HD
ATOM      8  H12 UNL     1     -45.526 -40.166  28.563  1.00  0.00     0.274 HD
ATOM      9  H11 UNL     1     -44.747 -40.527  30.013  1.00  0.00     0.274 HD
ENDBRANCH   5   6
ENDBRANCH   3   5
ENDBRANCH   1   2
BRANCH   1  10
HETATM   10  C5  UNL     1     -48.791 -38.477  28.628  1.00  0.00     0.074 C 
BRANCH  10  11
HETATM   11  C6  UNL     1     -49.998 -37.826  28.050  1.00  0.00     0.057 C 
BRANCH  11  12
HETATM   12  N3  UNL     1     -50.306 -36.542  28.455  1.00  0.00    -0.395 N 
ATOM     13  H3  UNL     1     -50.043 -36.278  29.405  1.00  0.00     0.159 HD
BRANCH  12  14
HETATM   14  C7  UNL     1     -50.943 -35.577  27.683  1.00  0.00     0.112 C 
HETATM   15  C8  UNL     1     -52.428 -35.780  27.600  1.00  0.00     0.156 C 
HETATM   16  N4  UNL     1     -52.758 -35.200  26.300  1.00  0.00    -0.146 NA
HETATM   17  N5  UNL     1     -51.775 -35.659  25.463  1.00  0.00    -0.146 NA
HETATM   18  C9  UNL     1     -50.539 -35.656  26.209  1.00  0.00     0.156 C 
ENDBRANCH  12  14
ENDBRANCH  11  12
ENDBRANCH  10  11
ENDBRANCH   1  10
TORSDOF 7
ENDMDL
MODEL 2
REMARK VINA RESULT: -5.481575186      1.048      1.487
REMARK  7 active torsions:
REMARK  status: ('A' for Active; 'I' for Inactive)
REMARK    1  A    between atoms: N1_1  and  C1_5 
REMARK    2  A    between atoms: C1_5  and  C2_6 
REMARK    3  A    between atoms: N2_8  and  C4_9 
REMARK    4  A    between atoms: C4_9  and  C5_10 
REMARK    5  A    between atoms: C5_10  and  C6_11 
REMARK    6  A    between atoms: C6_11  and  N3_12 
REMARK    7  A    between atoms: N3_12  and  C7_14 
ROOT
HETATM    1  C4  UNL     1     -47.550 -37.500  28.499  1.00  0.00     0.278 C 
ENDROOT
BRANCH   1   2
HETATM    2  N2  UNL     1     -47.128 -37.097  29.810  1.00  0.00     0.099 N 
HETATM    3  C2  UNL     1     -45.985 -37.676  30.442  1.00  0.00     0.276 A 
HETATM    4  C3  UNL     1     -46.053 -36.197  30.046  1.00  0.00     0.310 A 
BRANCH   3   5
HETATM    5  C1  UNL     1     -44.988 -38.484  29.649  1.00  0.00     0.267 C 
BRANCH   5   6
HETATM    6  N1  UNL     1     -45.355 -39.892  29.592  1.00  0.00    -0.077 N 
ATOM      7  H13 UNL     1     -44.542 -40.493  29.729  1.00  0.00     0.274 HD
ATOM      8  H12 UNL     1     -45.898 -40.168  30.410  1.00  0.00     0.274 HD
ATOM      9  H11 UNL     1     -45.845 -40.121  28.727  1.00  0.00     0.274 HD
ENDBRANCH   5   6
ENDBRANCH   3   5
ENDBRANCH   1   2
BRANCH   1  10
HETATM   10  C5  UNL     1     -48.692 -38.503  28.551  1.00  0.00     0.074 C 
BRANCH  10  11
HETATM   11  C6  UNL     1     -49.828 -38.076  27.690  1.00  0.00     0.057 C 
BRANCH  11  12
HETATM   12  N3  UNL     1     -49.546 -37.354  26.546  1.00  0.00    -0.395 N 
ATOM     13  H3  UNL     1     -48.572 -37.091  26.391  1.00  0.00     0.159 HD
BRANCH  12  14
HETATM   14  C7  UNL     1     -50.472 -36.953  25.589  1.00  0.00     0.112 C 
HETATM   15  C8  UNL     1     -50.179 -35.593  25.025  1.00  0.00     0.156 C 
HETATM   16  N4  UNL     1     -51.507 -35.105  24.661  1.00  0.00    -0.146 NA
HETATM   17  N5  UNL     1     -52.299 -35.447  25.726  1.00  0.00    -0.146 NA
HETATM   18  C9  UNL     1     -51.867 -36.746  26.184  1.00  0.00     0.156 C 
ENDBRANCH  12  14
ENDBRANCH  11  12
ENDBRANCH  10  11
ENDBRANCH   1  10
TORSDOF 7
ENDMDL
MODEL 3
REMARK VINA RESULT: -5.378389482      4.631      8.174
REMARK  7 active torsions:
REMARK  status: ('A' for Active; 'I' for Inactive)
REMARK    1  A    between atoms: N1_1  and  C1_5 
REMARK    2  A    between atoms: C1_5  and  C2_6 
REMARK    3  A    between atoms: N2_8  and  C4_9 
REMARK    4  A    between atoms: C4_9  and  C5_10 
REMARK    5  A    between atoms: C5_10  and  C6_11 
REMARK    6  A    between atoms: C6_11  and  N3_12 
REMARK    7  A    between atoms: N3_12  and  C7_14 
ROOT
HETATM    1  C4  UNL     1     -52.826 -37.787  22.557  1.00  0.00     0.278 C 
ENDROOT
BRANCH   1   2
HETATM    2  N2  UNL     1     -52.887 -38.666  21.424  1.00  0.00     0.099 N 
HETATM    3  C2  UNL     1     -54.099 -38.869  20.695  1.00  0.00     0.276 A 
HETATM    4  C3  UNL     1     -52.859 -38.212  20.077  1.00  0.00     0.310 A 
BRANCH   3   5
HETATM    5  C1  UNL     1     -55.271 -37.937  20.868  1.00  0.00     0.267 C 
BRANCH   5   6
HETATM    6  N1  UNL     1     -56.512 -38.664  21.099  1.00  0.00    -0.077 N 
ATOM      7  H13 UNL     1     -56.903 -39.017  20.225  1.00  0.00     0.274 HD
ATOM      8  H12 UNL     1     -56.339 -39.553  21.569  1.00  0.00     0.274 HD
ATOM      9  H11 UNL     1     -57.192 -38.100  21.609  1.00  0.00     0.274 HD
ENDBRANCH   5   6
ENDBRANCH   3   5
ENDBRANCH   1   2
BRANCH   1  10
HETATM   10  C5  UNL     1     -52.127 -38.433  23.742  1.00  0.00     0.074 C 
BRANCH  10  11
HETATM   11  C6  UNL     1     -52.099 -37.522  24.919  1.00  0.00     0.057 C 
BRANCH  11  12
HETATM   12  N3  UNL     1     -51.489 -37.967  26.076  1.00  0.00    -0.395 N 
ATOM     13  H3  UNL     1     -51.306 -38.968  26.150  1.00  0.00     0.159 HD
BRANCH  12  14
HETATM   14  C7  UNL     1     -51.102 -37.171  27.148  1.00  0.00     0.112 C 
HETATM   15  C8  UNL     1     -52.087 -36.080  27.453  1.00  0.00     0.156 C 
HETATM   16  N4  UNL     1     -51.242 -35.036  28.026  1.00  0.00    -0.146 NA
HETATM   17  N5  UNL     1     -50.141 -35.003  27.210  1.00  0.00    -0.146 NA
HETATM   18  C9  UNL     1     -49.836 -36.366  26.844  1.00  0.00     0.156 C 
ENDBRANCH  12  14
ENDBRANCH  11  12
ENDBRANCH  10  11
ENDBRANCH   1  10
TORSDOF 7
ENDMDL
MODEL 4
REMARK VINA RESULT: -5.310675870      1.808      5.752
REMARK  7 active torsions:
REMARK  status: ('A' for Active; 'I' for Inactive)
REMARK    1  A    between atoms: N1_1  and  C1_5 
REMARK    2  A    between atoms: C1_5  and  C2_6 
REMARK    3  A    between atoms: N2_8  and  C4_9 
REMARK    4  A    between atoms: C4_9  and  C5_10 
REMARK    5  A    between atoms: C5_10  and  C6_11 
REMARK    6  A    between atoms: C6_11  and  N3_12 
REMARK    7  A    between atoms: N3_12  and  C7_14 
ROOT
HETATM    1  C4  UNL     1     -52.342 -36.264  26.156  1.00  0.00     0.278 C 
ENDROOT
BRANCH   1   2
HETATM    2  N2  UNL     1     -52.030 -37.385  25.315  1.00  0.00     0.099 N 
HETATM    3  C2  UNL     1     -50.915 -37.367  24.422  1.00  0.00     0.276 A 
HETATM    4  C3  UNL     1     -51.009 -38.328  25.614  1.00  0.00     0.310 A 
BRANCH   3   5
HETATM    5  C1  UNL     1     -49.835 -36.323  24.554  1.00  0.00     0.267 C 
BRANCH   5   6
HETATM    6  N1  UNL     1     -48.908 -36.358  23.432  1.00  0.00    -0.077 N 
ATOM      7  H13 UNL     1     -48.667 -37.317  23.179  1.00  0.00     0.274 HD
ATOM      8  H12 UNL     1     -49.364 -36.074  22.565  1.00  0.00     0.274 HD
ATOM      9  H11 UNL     1     -48.073 -35.801  23.612  1.00  0.00     0.274 HD
ENDBRANCH   5   6
ENDBRANCH   3   5
ENDBRANCH   1   2
BRANCH   1  10
HETATM   10  C5  UNL     1     -51.982 -36.524  27.610  1.00  0.00     0.074 C 
BRANCH  10  11
HETATM   11  C6  UNL     1     -50.842 -35.673  28.047  1.00  0.00     0.057 C 
BRANCH  11  12
HETATM   12  N3  UNL     1     -49.937 -36.205  28.946  1.00  0.00    -0.395 N 
ATOM     13  H3  UNL     1     -49.979 -35.862  29.906  1.00  0.00     0.159 HD
BRANCH  12  14
HETATM   14  C7  UNL     1     -48.974 -37.166  28.656  1.00  0.00     0.112 C 
HETATM   15  C8  UNL     1     -49.286 -38.505  29.258  1.00  0.00     0.156 C 
HETATM   16  N4  UNL     1     -47.958 -39.083  29.458  1.00  0.00    -0.146 NA
HETATM   17  N5  UNL     1     -47.215 -38.054  29.976  1.00  0.00    -0.146 NA
HETATM   18  C9  UNL     1     -47.624 -36.845  29.301  1.00  0.00     0.156 C 
ENDBRANCH  12  14
ENDBRANCH  11  12
ENDBRANCH  10  11
ENDBRANCH   1  10
TORSDOF 7
ENDMDL
MODEL 5
REMARK VINA RESULT: -5.264309315      2.133      5.969
REMARK  7 active torsions:
REMARK  status: ('A' for Active; 'I' for Inactive)
REMARK    1  A    between atoms: N1_1  and  C1_5 
REMARK    2  A    between atoms: C1_5  and  C2_6 
REMARK    3  A    between atoms: N2_8  and  C4_9 
REMARK    4  A    between atoms: C4_9  and  C5_10 
REMARK    5  A    between atoms: C5_10  and  C6_11 
REMARK    6  A    between atoms: C6_11  and  N3_12 
REMARK    7  A    between atoms: N3_12  and  C7_14 
ROOT
HETATM    1  C4  UNL     1     -52.103 -36.780  25.818  1.00  0.00     0.278 C 
ENDROOT
BRANCH   1   2
HETATM    2  N2  UNL     1     -50.914 -36.340  25.145  1.00  0.00     0.099 N 
HETATM    3  C2  UNL     1     -50.358 -37.068  24.049  1.00  0.00     0.276 A 
HETATM    4  C3  UNL     1     -50.927 -35.652  23.901  1.00  0.00     0.310 A 
BRANCH   3   5
HETATM    5  C1  UNL     1     -51.157 -38.134  23.343  1.00  0.00     0.267 C 
BRANCH   5   6
HETATM    6  N1  UNL     1     -50.334 -38.913  22.429  1.00  0.00    -0.077 N 
ATOM      7  H13 UNL     1     -49.340 -38.746  22.591  1.00  0.00     0.274 HD
ATOM      8  H12 UNL     1     -50.369 -39.907  22.654  1.00  0.00     0.274 HD
ATOM      9  H11 UNL     1     -50.584 -38.744  21.454  1.00  0.00     0.274 HD
ENDBRANCH   5   6
ENDBRANCH   3   5
ENDBRANCH   1   2
BRANCH   1  10
HETATM   10  C5  UNL     1     -52.032 -36.536  27.317  1.00  0.00     0.074 C 
BRANCH  10  11
HETATM   11  C6  UNL     1     -50.862 -35.688  27.674  1.00  0.00     0.057 C 
BRANCH  11  12
HETATM   12  N3  UNL     1     -50.021 -36.125  28.679  1.00  0.00    -0.395 N 
ATOM     13  H3  UNL     1     -50.102 -35.665  29.586  1.00  0.00     0.159 HD
BRANCH  12  14
HETATM   14  C7  UNL     1     -49.074 -37.137  28.563  1.00  0.00     0.112 C 
HETATM   15  C8  UNL     1     -49.441 -38.372  29.333  1.00  0.00     0.156 C 
HETATM   16  N4  UNL     1     -48.137 -38.943  29.663  1.00  0.00    -0.146 NA
HETATM   17  N5  UNL     1     -47.385 -37.868  30.061  1.00  0.00    -0.146 NA
HETATM   18  C9  UNL     1     -47.739 -36.757  29.208  1.00  0.00     0.156 C 
ENDBRANCH  12  14
ENDBRANCH  11  12
ENDBRANCH  10  11
ENDBRANCH   1  10
TORSDOF 7
ENDMDL
