MODEL 1
REMARK VINA RESULT: -8.686050111      0.000      0.000
REMARK  9 active torsions:
REMARK  status: ('A' for Active; 'I' for Inactive)
REMARK    1  A    between atoms: C2_2  and  C3_3 
REMARK    2  A    between atoms: C3_3  and  O1_4 
REMARK    3  A    between atoms: O1_4  and  C4_5 
REMARK    4  A    between atoms: C10_11  and  O2_12 
REMARK    5  A    between atoms: O2_12  and  C11_13 
REMARK    6  A    between atoms: C20_23  and  O4_24 
REMARK    7  A    between atoms: C22_28  and  C23_29 
REMARK    8  A    between atoms: C26_32  and  O6_33 
REMARK    9  A    between atoms: C29_37  and  O7_38 
ROOT
HETATM    1  C4  UNL     1      -4.430 -15.659  22.136  1.00  0.00     0.133 C 
HETATM    2  C5  UNL     1      -3.663 -15.712  20.768  1.00  0.00     0.039 C 
HETATM    3  C6  UNL     1      -4.638 -16.141  19.701  1.00  0.00     0.007 C 
HETATM    4  C7  UNL     1      -3.889 -16.579  18.510  1.00  0.00    -0.016 C 
HETATM    5  C8  UNL     1      -2.516 -16.009  18.353  1.00  0.00     0.018 C 
HETATM    6  C9  UNL     1      -3.660 -18.105  18.599  1.00  0.00     0.018 C 
HETATM    7  C10 UNL     1      -4.642 -16.403  17.208  1.00  0.00     0.140 C 
HETATM    8  C13 UNL     1      -5.125 -15.000  17.081  1.00  0.00     0.034 C 
HETATM    9  C14 UNL     1      -5.203 -14.211  18.337  1.00  0.00     0.012 C 
HETATM   10  C15 UNL     1      -5.634 -15.037  19.567  1.00  0.00    -0.035 C 
HETATM   11  C16 UNL     1      -6.981 -15.637  19.172  1.00  0.00     0.016 C 
HETATM   12  C17 UNL     1      -5.715 -14.089  20.682  1.00  0.00     0.007 C 
HETATM   13  C18 UNL     1      -6.855 -13.132  20.582  1.00  0.00     0.011 C 
HETATM   14  C19 UNL     1      -6.537 -11.742  21.155  1.00  0.00     0.069 C 
HETATM   15  C20 UNL     1      -6.846 -11.726  22.580  1.00  0.00     0.172 C 
HETATM   16  O5  UNL     1      -6.709 -13.024  23.058  1.00  0.00    -0.347 OA
HETATM   17  C21 UNL     1      -5.347 -13.369  22.842  1.00  0.00     0.147 C 
HETATM   18  C22 UNL     1      -4.740 -13.067  24.124  1.00  0.00     0.079 C 
HETATM   19  C26 UNL     1      -5.365 -11.734  24.589  1.00  0.00     0.086 C 
HETATM   20  C27 UNL     1      -4.527 -10.959  25.512  1.00  0.00     0.046 C 
HETATM   21  C28 UNL     1      -4.968 -11.134  26.982  1.00  0.00     0.016 C 
HETATM   22  C29 UNL     1      -4.468  -9.480  25.290  1.00  0.00     0.124 C 
HETATM   23  C30 UNL     1      -4.577  -8.963  23.923  1.00  0.00     0.033 C 
HETATM   24  C31 UNL     1      -5.207  -9.849  22.894  1.00  0.00     0.020 C 
HETATM   25  C32 UNL     1      -6.072 -10.907  23.534  1.00  0.00     0.045 C 
HETATM   26  C33 UNL     1      -7.099 -10.061  24.316  1.00  0.00     0.024 C 
HETATM   27  C34 UNL     1      -5.480 -14.622  22.113  1.00  0.00     0.014 C 
HETATM   28  C35 UNL     1      -6.756 -15.337  22.601  1.00  0.00     0.021 C 
ENDROOT
BRANCH   1  29
HETATM   29  O1  UNL     1      -4.987 -16.937  22.312  1.00  0.00    -0.381 OA
BRANCH  29  30
HETATM   30  C3  UNL     1      -4.444 -17.749  23.235  1.00  0.00     0.194 C 
BRANCH  30  31
HETATM   31  C2  UNL     1      -3.311 -17.264  24.037  1.00  0.00    -0.011 C 
HETATM   32  C1  UNL     1      -2.183 -17.966  24.070  1.00  0.00     0.009 C 
ENDBRANCH  30  31
ENDBRANCH  29  30
ENDBRANCH   1  29
BRANCH  18  33
HETATM   33  C23 UNL     1      -3.245 -12.967  24.123  1.00  0.00    -0.084 C 
HETATM   34  C24 UNL     1      -2.586 -12.313  23.150  1.00  0.00     0.014 C 
HETATM   35  C25 UNL     1      -2.337 -13.519  25.165  1.00  0.00     0.043 C 
ENDBRANCH  18  33
BRANCH   7  36
HETATM   36  O2  UNL     1      -3.758 -16.705  16.152  1.00  0.00    -0.316 OA
BRANCH  36  37
HETATM   37  C11 UNL     1      -4.213 -17.384  15.036  1.00  0.00     0.255 C 
HETATM   38  C12 UNL     1      -3.534 -17.347  13.716  1.00  0.00     0.126 C 
HETATM   39  O3  UNL     1      -5.263 -18.080  15.134  1.00  0.00    -0.266 OA
ENDBRANCH  36  37
ENDBRANCH   7  36
BRANCH  15  40
HETATM   40  O4  UNL     1      -8.260 -11.579  22.662  1.00  0.00    -0.364 OA
ATOM     41  H4  UNL     1      -8.422 -10.644  22.611  1.00  0.00     0.213 HD
ENDBRANCH  15  40
BRANCH  19  42
HETATM   42  O6  UNL     1      -6.482 -12.195  25.363  1.00  0.00    -0.388 OA
ATOM     43  H6  UNL     1      -6.994 -11.400  25.450  1.00  0.00     0.210 HD
ENDBRANCH  19  42
BRANCH  22  44
HETATM   44  O7  UNL     1      -3.240  -9.019  25.841  1.00  0.00    -0.395 OA
ATOM     45  H7  UNL     1      -3.154  -9.410  26.703  1.00  0.00     0.210 HD
ENDBRANCH  22  44
TORSDOF 9
ENDMDL
MODEL 2
REMARK VINA RESULT: -8.019002574      1.887      8.546
REMARK  9 active torsions:
REMARK  status: ('A' for Active; 'I' for Inactive)
REMARK    1  A    between atoms: C2_2  and  C3_3 
REMARK    2  A    between atoms: C3_3  and  O1_4 
REMARK    3  A    between atoms: O1_4  and  C4_5 
REMARK    4  A    between atoms: C10_11  and  O2_12 
REMARK    5  A    between atoms: O2_12  and  C11_13 
REMARK    6  A    between atoms: C20_23  and  O4_24 
REMARK    7  A    between atoms: C22_28  and  C23_29 
REMARK    8  A    between atoms: C26_32  and  O6_33 
REMARK    9  A    between atoms: C29_37  and  O7_38 
ROOT
HETATM    1  C4  UNL     1      -6.931 -15.301  20.932  1.00  0.00     0.133 C 
HETATM    2  C5  UNL     1      -6.939 -13.750  21.169  1.00  0.00     0.039 C 
HETATM    3  C6  UNL     1      -6.298 -13.478  22.507  1.00  0.00     0.007 C 
HETATM    4  C7  UNL     1      -6.637 -12.110  22.935  1.00  0.00    -0.016 C 
HETATM    5  C8  UNL     1      -6.976 -11.147  21.843  1.00  0.00     0.018 C 
HETATM    6  C9  UNL     1      -7.912 -12.162  23.807  1.00  0.00     0.018 C 
HETATM    7  C10 UNL     1      -5.605 -11.474  23.843  1.00  0.00     0.140 C 
HETATM    8  C13 UNL     1      -4.256 -11.547  23.217  1.00  0.00     0.034 C 
HETATM    9  C14 UNL     1      -4.081 -12.555  22.140  1.00  0.00     0.012 C 
HETATM   10  C15 UNL     1      -4.862 -13.864  22.377  1.00  0.00    -0.035 C 
HETATM   11  C16 UNL     1      -4.364 -14.366  23.730  1.00  0.00     0.016 C 
HETATM   12  C17 UNL     1      -4.519 -14.748  21.258  1.00  0.00     0.007 C 
HETATM   13  C18 UNL     1      -3.117 -15.255  21.294  1.00  0.00     0.011 C 
HETATM   14  C19 UNL     1      -2.497 -15.434  19.899  1.00  0.00     0.069 C 
HETATM   15  C20 UNL     1      -2.807 -16.770  19.403  1.00  0.00     0.172 C 
HETATM   16  O5  UNL     1      -4.000 -17.174  19.991  1.00  0.00    -0.347 OA
HETATM   17  C21 UNL     1      -4.977 -16.237  19.557  1.00  0.00     0.147 C 
HETATM   18  C22 UNL     1      -5.568 -16.905  18.415  1.00  0.00     0.079 C 
HETATM   19  C26 UNL     1      -4.396 -17.546  17.641  1.00  0.00     0.086 C 
HETATM   20  C27 UNL     1      -4.653 -17.754  16.211  1.00  0.00     0.046 C 
HETATM   21  C28 UNL     1      -5.039 -19.217  15.898  1.00  0.00     0.016 C 
HETATM   22  C29 UNL     1      -3.535 -17.431  15.270  1.00  0.00     0.124 C 
HETATM   23  C30 UNL     1      -2.612 -16.345  15.612  1.00  0.00     0.033 C 
HETATM   24  C31 UNL     1      -2.520 -15.939  17.049  1.00  0.00     0.020 C 
HETATM   25  C32 UNL     1      -3.006 -17.037  17.964  1.00  0.00     0.045 C 
HETATM   26  C33 UNL     1      -2.062 -18.204  17.603  1.00  0.00     0.024 C 
HETATM   27  C34 UNL     1      -5.551 -15.814  20.826  1.00  0.00     0.014 C 
HETATM   28  C35 UNL     1      -5.491 -17.001  21.809  1.00  0.00     0.021 C 
ENDROOT
BRANCH   1  29
HETATM   29  O1  UNL     1      -7.594 -15.861  22.037  1.00  0.00    -0.381 OA
BRANCH  29  30
HETATM   30  C3  UNL     1      -8.817 -16.386  21.851  1.00  0.00     0.194 C 
BRANCH  30  31
HETATM   31  C2  UNL     1      -9.053 -17.253  20.686  1.00  0.00    -0.011 C 
HETATM   32  C1  UNL     1     -10.095 -17.018  19.896  1.00  0.00     0.009 C 
ENDBRANCH  30  31
ENDBRANCH  29  30
ENDBRANCH   1  29
BRANCH  18  33
HETATM   33  C23 UNL     1      -6.376 -16.032  17.503  1.00  0.00    -0.084 C 
HETATM   34  C24 UNL     1      -5.915 -14.842  17.080  1.00  0.00     0.014 C 
HETATM   35  C25 UNL     1      -7.714 -16.365  16.943  1.00  0.00     0.043 C 
ENDBRANCH  18  33
BRANCH   7  36
HETATM   36  O2  UNL     1      -5.972 -10.127  24.041  1.00  0.00    -0.316 OA
BRANCH  36  37
HETATM   37  C11 UNL     1      -6.113  -9.624  25.321  1.00  0.00     0.255 C 
HETATM   38  C12 UNL     1      -4.998  -9.534  26.297  1.00  0.00     0.126 C 
HETATM   39  O3  UNL     1      -7.249  -9.215  25.692  1.00  0.00    -0.266 OA
ENDBRANCH  36  37
ENDBRANCH   7  36
BRANCH  15  40
HETATM   40  O4  UNL     1      -1.896 -17.643  20.062  1.00  0.00    -0.364 OA
ATOM     41  H4  UNL     1      -2.110 -18.515  19.752  1.00  0.00     0.213 HD
ENDBRANCH  15  40
BRANCH  19  42
HETATM   42  O6  UNL     1      -4.347 -18.855  18.227  1.00  0.00    -0.388 OA
ATOM     43  H6  UNL     1      -4.105 -19.389  17.480  1.00  0.00     0.210 HD
ENDBRANCH  19  42
BRANCH  22  44
HETATM   44  O7  UNL     1      -4.118 -17.135  14.007  1.00  0.00    -0.395 OA
ATOM     45  H7  UNL     1      -3.445 -17.265  13.349  1.00  0.00     0.210 HD
ENDBRANCH  22  44
TORSDOF 9
ENDMDL
MODEL 3
REMARK VINA RESULT: -7.552518056      1.058      1.240
REMARK  9 active torsions:
REMARK  status: ('A' for Active; 'I' for Inactive)
REMARK    1  A    between atoms: C2_2  and  C3_3 
REMARK    2  A    between atoms: C3_3  and  O1_4 
REMARK    3  A    between atoms: O1_4  and  C4_5 
REMARK    4  A    between atoms: C10_11  and  O2_12 
REMARK    5  A    between atoms: O2_12  and  C11_13 
REMARK    6  A    between atoms: C20_23  and  O4_24 
REMARK    7  A    between atoms: C22_28  and  C23_29 
REMARK    8  A    between atoms: C26_32  and  O6_33 
REMARK    9  A    between atoms: C29_37  and  O7_38 
ROOT
HETATM    1  C4  UNL     1      -3.588 -15.817  22.270  1.00  0.00     0.133 C 
HETATM    2  C5  UNL     1      -2.697 -15.690  20.984  1.00  0.00     0.039 C 
HETATM    3  C6  UNL     1      -3.446 -16.311  19.832  1.00  0.00     0.007 C 
HETATM    4  C7  UNL     1      -2.506 -16.565  18.727  1.00  0.00    -0.016 C 
HETATM    5  C8  UNL     1      -1.282 -15.709  18.697  1.00  0.00     0.018 C 
HETATM    6  C9  UNL     1      -1.961 -18.006  18.856  1.00  0.00     0.018 C 
HETATM    7  C10 UNL     1      -3.148 -16.546  17.354  1.00  0.00     0.140 C 
HETATM    8  C13 UNL     1      -3.910 -15.280  17.163  1.00  0.00     0.034 C 
HETATM    9  C14 UNL     1      -4.280 -14.539  18.395  1.00  0.00     0.012 C 
HETATM   10  C15 UNL     1      -4.640 -15.449  19.588  1.00  0.00    -0.035 C 
HETATM   11  C16 UNL     1      -5.780 -16.324  19.071  1.00  0.00     0.016 C 
HETATM   12  C17 UNL     1      -5.034 -14.551  20.677  1.00  0.00     0.007 C 
HETATM   13  C18 UNL     1      -6.340 -13.864  20.454  1.00  0.00     0.011 C 
HETATM   14  C19 UNL     1      -6.389 -12.443  21.037  1.00  0.00     0.069 C 
HETATM   15  C20 UNL     1      -6.833 -12.508  22.425  1.00  0.00     0.172 C 
HETATM   16  O5  UNL     1      -6.464 -13.749  22.931  1.00  0.00    -0.347 OA
HETATM   17  C21 UNL     1      -5.045 -13.788  22.854  1.00  0.00     0.147 C 
HETATM   18  C22 UNL     1      -4.647 -13.372  24.185  1.00  0.00     0.079 C 
HETATM   19  C26 UNL     1      -5.590 -12.211  24.569  1.00  0.00     0.086 C 
HETATM   20  C27 UNL     1      -5.034 -11.280  25.559  1.00  0.00     0.046 C 
HETATM   21  C28 UNL     1      -5.570 -11.559  26.981  1.00  0.00     0.016 C 
HETATM   22  C29 UNL     1      -5.277  -9.822  25.325  1.00  0.00     0.124 C 
HETATM   23  C30 UNL     1      -5.361  -9.329  23.948  1.00  0.00     0.033 C 
HETATM   24  C31 UNL     1      -5.679 -10.322  22.874  1.00  0.00     0.020 C 
HETATM   25  C32 UNL     1      -6.352 -11.548  23.440  1.00  0.00     0.045 C 
HETATM   26  C33 UNL     1      -7.610 -10.952  24.106  1.00  0.00     0.024 C 
HETATM   27  C34 UNL     1      -4.831 -15.033  22.131  1.00  0.00     0.014 C 
HETATM   28  C35 UNL     1      -5.963 -16.012  22.501  1.00  0.00     0.021 C 
ENDROOT
BRANCH   1  29
HETATM   29  O1  UNL     1      -3.869 -17.187  22.407  1.00  0.00    -0.381 OA
BRANCH  29  30
HETATM   30  C3  UNL     1      -3.608 -17.778  23.586  1.00  0.00     0.194 C 
BRANCH  30  31
HETATM   31  C2  UNL     1      -2.214 -18.087  23.938  1.00  0.00    -0.011 C 
HETATM   32  C1  UNL     1      -1.961 -18.906  24.953  1.00  0.00     0.009 C 
ENDBRANCH  30  31
ENDBRANCH  29  30
ENDBRANCH   1  29
BRANCH  18  33
HETATM   33  C23 UNL     1      -3.217 -12.949  24.328  1.00  0.00    -0.084 C 
HETATM   34  C24 UNL     1      -2.397 -13.537  25.217  1.00  0.00     0.014 C 
HETATM   35  C25 UNL     1      -2.538 -11.898  23.522  1.00  0.00     0.043 C 
ENDBRANCH  18  33
BRANCH   7  36
HETATM   36  O2  UNL     1      -2.120 -16.639  16.394  1.00  0.00    -0.316 OA
BRANCH  36  37
HETATM   37  C11 UNL     1      -2.302 -17.397  15.251  1.00  0.00     0.255 C 
HETATM   38  C12 UNL     1      -1.209 -18.139  14.573  1.00  0.00     0.126 C 
HETATM   39  O3  UNL     1      -3.459 -17.471  14.749  1.00  0.00    -0.266 OA
ENDBRANCH  36  37
ENDBRANCH   7  36
BRANCH  15  40
HETATM   40  O4  UNL     1      -8.246 -12.672  22.366  1.00  0.00    -0.364 OA
ATOM     41  H4  UNL     1      -8.451 -13.339  23.010  1.00  0.00     0.213 HD
ENDBRANCH  15  40
BRANCH  19  42
HETATM   42  O6  UNL     1      -6.650 -12.910  25.236  1.00  0.00    -0.388 OA
ATOM     43  H6  UNL     1      -6.403 -12.805  26.147  1.00  0.00     0.210 HD
ENDBRANCH  19  42
BRANCH  22  44
HETATM   44  O7  UNL     1      -4.239  -9.110  25.988  1.00  0.00    -0.395 OA
ATOM     45  H7  UNL     1      -3.480  -9.681  26.019  1.00  0.00     0.210 HD
ENDBRANCH  22  44
TORSDOF 9
ENDMDL
MODEL 4
REMARK VINA RESULT: -7.174685193      1.695      2.435
REMARK  9 active torsions:
REMARK  status: ('A' for Active; 'I' for Inactive)
REMARK    1  A    between atoms: C2_2  and  C3_3 
REMARK    2  A    between atoms: C3_3  and  O1_4 
REMARK    3  A    between atoms: O1_4  and  C4_5 
REMARK    4  A    between atoms: C10_11  and  O2_12 
REMARK    5  A    between atoms: O2_12  and  C11_13 
REMARK    6  A    between atoms: C20_23  and  O4_24 
REMARK    7  A    between atoms: C22_28  and  C23_29 
REMARK    8  A    between atoms: C26_32  and  O6_33 
REMARK    9  A    between atoms: C29_37  and  O7_38 
ROOT
HETATM    1  C4  UNL     1      -5.881 -16.161  21.524  1.00  0.00     0.133 C 
HETATM    2  C5  UNL     1      -4.823 -16.741  20.521  1.00  0.00     0.039 C 
HETATM    3  C6  UNL     1      -5.299 -16.454  19.119  1.00  0.00     0.007 C 
HETATM    4  C7  UNL     1      -4.559 -17.308  18.174  1.00  0.00    -0.016 C 
HETATM    5  C8  UNL     1      -3.217 -17.782  18.630  1.00  0.00     0.018 C 
HETATM    6  C9  UNL     1      -5.364 -18.607  17.941  1.00  0.00     0.018 C 
HETATM    7  C10 UNL     1      -4.421 -16.716  16.786  1.00  0.00     0.140 C 
HETATM    8  C13 UNL     1      -3.848 -15.344  16.869  1.00  0.00     0.034 C 
HETATM    9  C14 UNL     1      -3.947 -14.664  18.185  1.00  0.00     0.012 C 
HETATM   10  C15 UNL     1      -5.252 -14.972  18.950  1.00  0.00    -0.035 C 
HETATM   11  C16 UNL     1      -6.364 -14.551  17.993  1.00  0.00     0.016 C 
HETATM   12  C17 UNL     1      -5.198 -14.173  20.178  1.00  0.00     0.007 C 
HETATM   13  C18 UNL     1      -5.351 -12.706  19.954  1.00  0.00     0.011 C 
HETATM   14  C19 UNL     1      -4.533 -11.851  20.935  1.00  0.00     0.069 C 
HETATM   15  C20 UNL     1      -5.327 -11.598  22.131  1.00  0.00     0.172 C 
HETATM   16  O5  UNL     1      -6.219 -12.654  22.280  1.00  0.00    -0.347 OA
HETATM   17  C21 UNL     1      -5.413 -13.814  22.446  1.00  0.00     0.147 C 
HETATM   18  C22 UNL     1      -5.352 -13.949  23.889  1.00  0.00     0.079 C 
HETATM   19  C26 UNL     1      -5.164 -12.521  24.444  1.00  0.00     0.086 C 
HETATM   20  C27 UNL     1      -4.511 -12.461  25.758  1.00  0.00     0.046 C 
HETATM   21  C28 UNL     1      -5.528 -12.264  26.903  1.00  0.00     0.016 C 
HETATM   22  C29 UNL     1      -3.484 -11.390  25.952  1.00  0.00     0.124 C 
HETATM   23  C30 UNL     1      -2.675 -10.965  24.806  1.00  0.00     0.033 C 
HETATM   24  C31 UNL     1      -3.210 -11.248  23.437  1.00  0.00     0.020 C 
HETATM   25  C32 UNL     1      -4.704 -11.462  23.463  1.00  0.00     0.045 C 
HETATM   26  C33 UNL     1      -5.215 -10.129  24.049  1.00  0.00     0.024 C 
HETATM   27  C34 UNL     1      -5.957 -14.691  21.421  1.00  0.00     0.014 C 
HETATM   28  C35 UNL     1      -7.459 -14.380  21.260  1.00  0.00     0.021 C 
ENDROOT
BRANCH   1  29
HETATM   29  O1  UNL     1      -7.105 -16.755  21.174  1.00  0.00    -0.381 OA
BRANCH  29  30
HETATM   30  C3  UNL     1      -7.141 -18.086  20.991  1.00  0.00     0.194 C 
BRANCH  30  31
HETATM   31  C2  UNL     1      -8.388 -18.711  20.523  1.00  0.00    -0.011 C 
HETATM   32  C1  UNL     1      -9.412 -17.942  20.170  1.00  0.00     0.009 C 
ENDBRANCH  30  31
ENDBRANCH  29  30
ENDBRANCH   1  29
BRANCH  18  33
HETATM   33  C23 UNL     1      -4.276 -14.854  24.407  1.00  0.00    -0.084 C 
HETATM   34  C24 UNL     1      -4.522 -16.145  24.693  1.00  0.00     0.014 C 
HETATM   35  C25 UNL     1      -2.855 -14.473  24.631  1.00  0.00     0.043 C 
ENDBRANCH  18  33
BRANCH   7  36
HETATM   36  O2  UNL     1      -3.564 -17.553  16.042  1.00  0.00    -0.316 OA
BRANCH  36  37
HETATM   37  C11 UNL     1      -3.739 -17.690  14.676  1.00  0.00     0.255 C 
HETATM   38  C12 UNL     1      -5.065 -17.657  14.009  1.00  0.00     0.126 C 
HETATM   39  O3  UNL     1      -2.721 -17.851  13.947  1.00  0.00    -0.266 OA
ENDBRANCH  36  37
ENDBRANCH   7  36
BRANCH  15  40
HETATM   40  O4  UNL     1      -6.232 -10.557  21.776  1.00  0.00    -0.364 OA
ATOM     41  H4  UNL     1      -6.349 -10.041  22.565  1.00  0.00     0.213 HD
ENDBRANCH  15  40
BRANCH  19  42
HETATM   42  O6  UNL     1      -6.523 -12.116  24.661  1.00  0.00    -0.388 OA
ATOM     43  H6  UNL     1      -6.406 -11.250  25.033  1.00  0.00     0.210 HD
ENDBRANCH  19  42
BRANCH  22  44
HETATM   44  O7  UNL     1      -2.601 -11.832  26.977  1.00  0.00    -0.395 OA
ATOM     45  H7  UNL     1      -1.743 -11.471  26.785  1.00  0.00     0.210 HD
ENDBRANCH  22  44
TORSDOF 9
ENDMDL
MODEL 5
REMARK VINA RESULT: -7.154154026      4.209      8.596
REMARK  9 active torsions:
REMARK  status: ('A' for Active; 'I' for Inactive)
REMARK    1  A    between atoms: C2_2  and  C3_3 
REMARK    2  A    between atoms: C3_3  and  O1_4 
REMARK    3  A    between atoms: O1_4  and  C4_5 
REMARK    4  A    between atoms: C10_11  and  O2_12 
REMARK    5  A    between atoms: O2_12  and  C11_13 
REMARK    6  A    between atoms: C20_23  and  O4_24 
REMARK    7  A    between atoms: C22_28  and  C23_29 
REMARK    8  A    between atoms: C26_32  and  O6_33 
REMARK    9  A    between atoms: C29_37  and  O7_38 
ROOT
HETATM    1  C4  UNL     1      -2.357 -16.497  19.862  1.00  0.00     0.133 C 
HETATM    2  C5  UNL     1      -3.667 -17.323  19.608  1.00  0.00     0.039 C 
HETATM    3  C6  UNL     1      -4.426 -16.664  18.483  1.00  0.00     0.007 C 
HETATM    4  C7  UNL     1      -5.813 -17.159  18.483  1.00  0.00    -0.016 C 
HETATM    5  C8  UNL     1      -6.031 -18.502  19.101  1.00  0.00     0.018 C 
HETATM    6  C9  UNL     1      -6.684 -16.203  19.330  1.00  0.00     0.018 C 
HETATM    7  C10 UNL     1      -6.476 -17.135  17.120  1.00  0.00     0.140 C 
HETATM    8  C13 UNL     1      -5.626 -17.847  16.125  1.00  0.00     0.034 C 
HETATM    9  C14 UNL     1      -4.196 -18.023  16.482  1.00  0.00     0.012 C 
HETATM   10  C15 UNL     1      -3.594 -16.830  17.256  1.00  0.00    -0.035 C 
HETATM   11  C16 UNL     1      -3.822 -15.629  16.342  1.00  0.00     0.016 C 
HETATM   12  C17 UNL     1      -2.179 -17.154  17.461  1.00  0.00     0.007 C 
HETATM   13  C18 UNL     1      -1.361 -17.113  16.213  1.00  0.00     0.011 C 
HETATM   14  C19 UNL     1      -0.231 -18.155  16.191  1.00  0.00     0.069 C 
HETATM   15  C20 UNL     1       0.960 -17.586  16.811  1.00  0.00     0.172 C 
HETATM   16  O5  UNL     1       0.545 -16.630  17.730  1.00  0.00    -0.347 OA
HETATM   17  C21 UNL     1      -0.235 -17.333  18.688  1.00  0.00     0.147 C 
HETATM   18  C22 UNL     1       0.728 -17.605  19.737  1.00  0.00     0.079 C 
HETATM   19  C26 UNL     1       2.033 -18.018  19.022  1.00  0.00     0.086 C 
HETATM   20  C27 UNL     1       2.920 -18.871  19.822  1.00  0.00     0.046 C 
HETATM   21  C28 UNL     1       4.079 -18.070  20.457  1.00  0.00     0.016 C 
HETATM   22  C29 UNL     1       3.574 -20.017  19.114  1.00  0.00     0.124 C 
HETATM   23  C30 UNL     1       2.858 -20.673  18.017  1.00  0.00     0.033 C 
HETATM   24  C31 UNL     1       1.763 -19.906  17.345  1.00  0.00     0.020 C 
HETATM   25  C32 UNL     1       1.916 -18.421  17.566  1.00  0.00     0.045 C 
HETATM   26  C33 UNL     1       3.309 -18.142  16.964  1.00  0.00     0.024 C 
HETATM   27  C34 UNL     1      -1.462 -16.551  18.690  1.00  0.00     0.014 C 
HETATM   28  C35 UNL     1      -1.104 -15.081  18.394  1.00  0.00     0.021 C 
ENDROOT
BRANCH   1  29
HETATM   29  O1  UNL     1      -2.778 -15.181  20.115  1.00  0.00    -0.381 OA
BRANCH  29  30
HETATM   30  C3  UNL     1      -3.219 -14.876  21.348  1.00  0.00     0.194 C 
BRANCH  30  31
HETATM   31  C2  UNL     1      -4.480 -14.134  21.493  1.00  0.00    -0.011 C 
HETATM   32  C1  UNL     1      -4.874 -13.316  20.522  1.00  0.00     0.009 C 
ENDBRANCH  30  31
ENDBRANCH  29  30
ENDBRANCH   1  29
BRANCH  18  33
HETATM   33  C23 UNL     1       0.325 -18.654  20.728  1.00  0.00    -0.084 C 
HETATM   34  C24 UNL     1       0.114 -18.354  22.022  1.00  0.00     0.014 C 
HETATM   35  C25 UNL     1       0.082 -20.090  20.421  1.00  0.00     0.043 C 
ENDBRANCH  18  33
BRANCH   7  36
HETATM   36  O2  UNL     1      -7.725 -17.779  17.235  1.00  0.00    -0.316 OA
BRANCH  36  37
HETATM   37  C11 UNL     1      -8.810 -17.328  16.505  1.00  0.00     0.255 C 
HETATM   38  C12 UNL     1      -8.821 -17.228  15.024  1.00  0.00     0.126 C 
HETATM   39  O3  UNL     1      -9.856 -16.979  17.122  1.00  0.00    -0.266 OA
ENDBRANCH  36  37
ENDBRANCH   7  36
BRANCH  15  40
HETATM   40  O4  UNL     1       1.541 -16.744  15.820  1.00  0.00    -0.364 OA
ATOM     41  H4  UNL     1       0.843 -16.555  15.205  1.00  0.00     0.213 HD
ENDBRANCH  15  40
BRANCH  19  42
HETATM   42  O6  UNL     1       2.705 -16.756  18.900  1.00  0.00    -0.388 OA
ATOM     43  H6  UNL     1       2.795 -16.500  19.810  1.00  0.00     0.210 HD
ENDBRANCH  19  42
BRANCH  22  44
HETATM   44  O7  UNL     1       3.879 -21.000  20.095  1.00  0.00    -0.395 OA
ATOM     45  H7  UNL     1       4.041 -21.816  19.636  1.00  0.00     0.210 HD
ENDBRANCH  22  44
TORSDOF 9
ENDMDL
