MODEL 1
REMARK VINA RESULT: -7.106653004      0.000      0.000
REMARK  7 active torsions:
REMARK  status: ('A' for Active; 'I' for Inactive)
REMARK    1  A    between atoms: C2_2  and  N1_3 
REMARK    2  A    between atoms: C8_11  and  N3_12 
REMARK    3  A    between atoms: N3_12  and  C9_14 
REMARK    4  A    between atoms: C9_14  and  C10_15 
REMARK    5  A    between atoms: C9_14  and  C17_23 
REMARK    6  A    between atoms: C13_18  and  O1_19 
REMARK    7  A    between atoms: C17_23  and  N4_25 
ROOT
HETATM    1  C9  UNL     1      21.444  33.847  -7.947  1.00  0.00     0.162 C 
ENDROOT
BRANCH   1   2
HETATM    2  N3  UNL     1      21.274  32.448  -8.107  1.00  0.00    -0.215 N 
ATOM      3  H3  UNL     1      20.861  31.962  -7.310  1.00  0.00     0.178 HD
BRANCH   2   4
HETATM    4  C8  UNL     1      21.564  31.717  -9.106  1.00  0.00     0.681 A 
HETATM    5  N1  UNL     1      20.748  30.719  -9.494  1.00  0.00    -0.188 N 
HETATM    6  C3  UNL     1      21.021  29.925 -10.545  1.00  0.00     0.027 A 
HETATM    7  C4  UNL     1      20.134  28.834 -10.975  1.00  0.00     0.069 C 
HETATM    8  C5  UNL     1      22.195  30.144 -11.262  1.00  0.00     0.050 A 
HETATM    9  C6  UNL     1      23.036  31.163 -10.871  1.00  0.00     0.024 A 
HETATM   10  C7  UNL     1      24.302  31.447 -11.594  1.00  0.00     0.068 C 
HETATM   11  N2  UNL     1      22.694  31.919  -9.805  1.00  0.00    -0.196 N 
ATOM     12  H2  UNL     1      23.320  32.672  -9.518  1.00  0.00     0.184 HD
BRANCH   5  13
HETATM   13  C2  UNL     1      19.507  30.451  -8.775  1.00  0.00     0.143 C 
HETATM   14  C1  UNL     1      18.365  31.212  -9.402  1.00  0.00     0.027 C 
ENDBRANCH   5  13
ENDBRANCH   2   4
ENDBRANCH   1   2
BRANCH   1  15
HETATM   15  C10 UNL     1      22.485  34.094  -6.886  1.00  0.00    -0.033 A 
HETATM   16  C11 UNL     1      23.030  35.353  -6.739  1.00  0.00     0.012 A 
HETATM   17  C12 UNL     1      23.988  35.651  -5.792  1.00  0.00     0.037 A 
HETATM   18  C13 UNL     1      24.387  34.609  -4.978  1.00  0.00     0.068 A 
HETATM   19  C15 UNL     1      23.851  33.347  -5.114  1.00  0.00     0.037 A 
HETATM   20  C16 UNL     1      22.896  33.063  -6.064  1.00  0.00     0.012 A 
BRANCH  18  21
HETATM   21  O1  UNL     1      25.348  34.897  -4.023  1.00  0.00    -0.356 OA
HETATM   22  C14 UNL     1      25.678  33.946  -3.000  1.00  0.00     0.210 C 
ENDBRANCH  18  21
ENDBRANCH   1  15
BRANCH   1  23
HETATM   23  C17 UNL     1      20.215  34.599  -7.532  1.00  0.00     0.207 C 
HETATM   24  C18 UNL     1      19.380  35.112  -8.664  1.00  0.00     0.042 C 
BRANCH  23  25
HETATM   25  N4  UNL     1      19.346  33.715  -6.744  1.00  0.00    -0.073 N 
ATOM     26  H43 UNL     1      18.568  34.219  -6.318  1.00  0.00     0.274 HD
ATOM     27  H42 UNL     1      18.804  33.081  -7.331  1.00  0.00     0.274 HD
ATOM     28  H41 UNL     1      19.908  33.217  -6.054  1.00  0.00     0.274 HD
ENDBRANCH  23  25
ENDBRANCH   1  23
TORSDOF 7
ENDMDL
MODEL 2
REMARK VINA RESULT: -7.071527277      1.180      1.225
REMARK  7 active torsions:
REMARK  status: ('A' for Active; 'I' for Inactive)
REMARK    1  A    between atoms: C2_2  and  N1_3 
REMARK    2  A    between atoms: C8_11  and  N3_12 
REMARK    3  A    between atoms: N3_12  and  C9_14 
REMARK    4  A    between atoms: C9_14  and  C10_15 
REMARK    5  A    between atoms: C9_14  and  C17_23 
REMARK    6  A    between atoms: C13_18  and  O1_19 
REMARK    7  A    between atoms: C17_23  and  N4_25 
ROOT
HETATM    1  C9  UNL     1      21.543  33.553  -7.945  1.00  0.00     0.162 C 
ENDROOT
BRANCH   1   2
HETATM    2  N3  UNL     1      21.113  32.220  -7.721  1.00  0.00    -0.215 N 
ATOM      3  H3  UNL     1      20.522  32.081  -6.901  1.00  0.00     0.178 HD
BRANCH   2   4
HETATM    4  C8  UNL     1      21.362  31.175  -8.402  1.00  0.00     0.681 A 
HETATM    5  N1  UNL     1      20.443  30.659  -9.240  1.00  0.00    -0.188 N 
HETATM    6  C3  UNL     1      20.669  29.556  -9.976  1.00  0.00     0.027 A 
HETATM    7  C4  UNL     1      19.670  28.988 -10.893  1.00  0.00     0.069 C 
HETATM    8  C5  UNL     1      21.905  28.922  -9.868  1.00  0.00     0.050 A 
HETATM    9  C6  UNL     1      22.851  29.444  -9.013  1.00  0.00     0.024 A 
HETATM   10  C7  UNL     1      24.186  28.813  -8.854  1.00  0.00     0.068 C 
HETATM   11  N2  UNL     1      22.550  30.554  -8.306  1.00  0.00    -0.196 N 
ATOM     12  H2  UNL     1      23.253  30.937  -7.673  1.00  0.00     0.184 HD
BRANCH   5  13
HETATM   13  C2  UNL     1      19.135  31.288  -9.387  1.00  0.00     0.143 C 
HETATM   14  C1  UNL     1      18.212  30.838  -8.281  1.00  0.00     0.027 C 
ENDBRANCH   5  13
ENDBRANCH   2   4
ENDBRANCH   1   2
BRANCH   1  15
HETATM   15  C10 UNL     1      22.567  33.917  -6.902  1.00  0.00    -0.033 A 
HETATM   16  C11 UNL     1      23.141  35.172  -6.913  1.00  0.00     0.012 A 
HETATM   17  C12 UNL     1      24.086  35.573  -5.991  1.00  0.00     0.037 A 
HETATM   18  C13 UNL     1      24.440  34.642  -5.034  1.00  0.00     0.068 A 
HETATM   19  C15 UNL     1      23.874  33.386  -5.012  1.00  0.00     0.037 A 
HETATM   20  C16 UNL     1      22.933  32.998  -5.938  1.00  0.00     0.012 A 
BRANCH  18  21
HETATM   21  O1  UNL     1      25.388  35.034  -4.103  1.00  0.00    -0.356 OA
HETATM   22  C14 UNL     1      25.738  34.181  -3.004  1.00  0.00     0.210 C 
ENDBRANCH  18  21
ENDBRANCH   1  15
BRANCH   1  23
HETATM   23  C17 UNL     1      20.466  34.594  -7.878  1.00  0.00     0.207 C 
HETATM   24  C18 UNL     1      19.733  34.823  -9.163  1.00  0.00     0.042 C 
BRANCH  23  25
HETATM   25  N4  UNL     1      19.456  34.187  -6.892  1.00  0.00    -0.073 N 
ATOM     26  H43 UNL     1      18.802  33.501  -7.270  1.00  0.00     0.274 HD
ATOM     27  H42 UNL     1      19.852  33.613  -6.147  1.00  0.00     0.274 HD
ATOM     28  H41 UNL     1      18.983  35.015  -6.532  1.00  0.00     0.274 HD
ENDBRANCH  23  25
ENDBRANCH   1  23
TORSDOF 7
ENDMDL
MODEL 3
REMARK VINA RESULT: -7.006428000      2.439      3.958
REMARK  7 active torsions:
REMARK  status: ('A' for Active; 'I' for Inactive)
REMARK    1  A    between atoms: C2_2  and  N1_3 
REMARK    2  A    between atoms: C8_11  and  N3_12 
REMARK    3  A    between atoms: N3_12  and  C9_14 
REMARK    4  A    between atoms: C9_14  and  C10_15 
REMARK    5  A    between atoms: C9_14  and  C17_23 
REMARK    6  A    between atoms: C13_18  and  O1_19 
REMARK    7  A    between atoms: C17_23  and  N4_25 
ROOT
HETATM    1  C9  UNL     1      22.152  31.486 -10.078  1.00  0.00     0.162 C 
ENDROOT
BRANCH   1   2
HETATM    2  N3  UNL     1      20.924  30.856 -10.408  1.00  0.00    -0.215 N 
ATOM      3  H3  UNL     1      20.148  31.486 -10.611  1.00  0.00     0.178 HD
BRANCH   2   4
HETATM    4  C8  UNL     1      20.658  29.615 -10.485  1.00  0.00     0.681 A 
HETATM    5  N1  UNL     1      19.424  29.153 -10.211  1.00  0.00    -0.188 N 
HETATM    6  C3  UNL     1      19.105  27.849 -10.281  1.00  0.00     0.027 A 
HETATM    7  C4  UNL     1      17.759  27.337  -9.984  1.00  0.00     0.069 C 
HETATM    8  C5  UNL     1      20.091  26.937 -10.653  1.00  0.00     0.050 A 
HETATM    9  C6  UNL     1      21.357  27.402 -10.934  1.00  0.00     0.024 A 
HETATM   10  C7  UNL     1      22.451  26.481 -11.335  1.00  0.00     0.068 C 
HETATM   11  N2  UNL     1      21.602  28.727 -10.842  1.00  0.00    -0.196 N 
ATOM     12  H2  UNL     1      22.541  29.067 -11.051  1.00  0.00     0.184 HD
BRANCH   5  13
HETATM   13  C2  UNL     1      18.358  30.068  -9.818  1.00  0.00     0.143 C 
HETATM   14  C1  UNL     1      18.459  30.386  -8.346  1.00  0.00     0.027 C 
ENDBRANCH   5  13
ENDBRANCH   2   4
ENDBRANCH   1   2
BRANCH   1  15
HETATM   15  C10 UNL     1      21.882  32.607  -9.109  1.00  0.00    -0.033 A 
HETATM   16  C11 UNL     1      21.414  33.818  -9.575  1.00  0.00     0.012 A 
HETATM   17  C12 UNL     1      21.147  34.889  -8.747  1.00  0.00     0.037 A 
HETATM   18  C13 UNL     1      21.374  34.689  -7.399  1.00  0.00     0.068 A 
HETATM   19  C15 UNL     1      21.841  33.485  -6.921  1.00  0.00     0.037 A 
HETATM   20  C16 UNL     1      22.104  32.425  -7.758  1.00  0.00     0.012 A 
BRANCH  18  21
HETATM   21  O1  UNL     1      21.109  35.758  -6.558  1.00  0.00    -0.356 OA
HETATM   22  C14 UNL     1      22.126  36.722  -6.249  1.00  0.00     0.210 C 
ENDBRANCH  18  21
ENDBRANCH   1  15
BRANCH   1  23
HETATM   23  C17 UNL     1      22.897  32.081 -11.235  1.00  0.00     0.207 C 
HETATM   24  C18 UNL     1      24.254  31.496 -11.478  1.00  0.00     0.042 C 
BRANCH  23  25
HETATM   25  N4  UNL     1      22.129  31.872 -12.469  1.00  0.00    -0.073 N 
ATOM     26  H43 UNL     1      21.211  32.316 -12.433  1.00  0.00     0.274 HD
ATOM     27  H42 UNL     1      22.512  32.395 -13.257  1.00  0.00     0.274 HD
ATOM     28  H41 UNL     1      22.067  30.873 -12.663  1.00  0.00     0.274 HD
ENDBRANCH  23  25
ENDBRANCH   1  23
TORSDOF 7
ENDMDL
MODEL 4
REMARK VINA RESULT: -6.882503181      1.752      2.193
REMARK  7 active torsions:
REMARK  status: ('A' for Active; 'I' for Inactive)
REMARK    1  A    between atoms: C2_2  and  N1_3 
REMARK    2  A    between atoms: C8_11  and  N3_12 
REMARK    3  A    between atoms: N3_12  and  C9_14 
REMARK    4  A    between atoms: C9_14  and  C10_15 
REMARK    5  A    between atoms: C9_14  and  C17_23 
REMARK    6  A    between atoms: C13_18  and  O1_19 
REMARK    7  A    between atoms: C17_23  and  N4_25 
ROOT
HETATM    1  C9  UNL     1      21.761  32.875  -8.104  1.00  0.00     0.162 C 
ENDROOT
BRANCH   1   2
HETATM    2  N3  UNL     1      21.641  31.468  -7.965  1.00  0.00    -0.215 N 
ATOM      3  H3  UNL     1      21.377  31.139  -7.036  1.00  0.00     0.178 HD
BRANCH   2   4
HETATM    4  C8  UNL     1      21.818  30.561  -8.839  1.00  0.00     0.681 A 
HETATM    5  N1  UNL     1      22.224  29.328  -8.484  1.00  0.00    -0.188 N 
HETATM    6  C3  UNL     1      22.423  28.343  -9.378  1.00  0.00     0.027 A 
HETATM    7  C4  UNL     1      22.866  26.994  -8.998  1.00  0.00     0.069 C 
HETATM    8  C5  UNL     1      22.198  28.609 -10.727  1.00  0.00     0.050 A 
HETATM    9  C6  UNL     1      21.782  29.870 -11.098  1.00  0.00     0.024 A 
HETATM   10  C7  UNL     1      21.526  30.216 -12.520  1.00  0.00     0.068 C 
HETATM   11  N2  UNL     1      21.605  30.807 -10.143  1.00  0.00    -0.196 N 
ATOM     12  H2  UNL     1      21.298  31.739 -10.422  1.00  0.00     0.184 HD
BRANCH   5  13
HETATM   13  C2  UNL     1      22.473  29.001  -7.084  1.00  0.00     0.143 C 
HETATM   14  C1  UNL     1      23.937  29.168  -6.760  1.00  0.00     0.027 C 
ENDBRANCH   5  13
ENDBRANCH   2   4
ENDBRANCH   1   2
BRANCH   1  15
HETATM   15  C10 UNL     1      22.659  33.399  -7.013  1.00  0.00    -0.033 A 
HETATM   16  C11 UNL     1      23.155  34.684  -7.091  1.00  0.00     0.012 A 
HETATM   17  C12 UNL     1      23.983  35.228  -6.132  1.00  0.00     0.037 A 
HETATM   18  C13 UNL     1      24.300  34.411  -5.064  1.00  0.00     0.068 A 
HETATM   19  C15 UNL     1      23.811  33.127  -4.973  1.00  0.00     0.037 A 
HETATM   20  C16 UNL     1      22.986  32.596  -5.938  1.00  0.00     0.012 A 
BRANCH  18  21
HETATM   21  O1  UNL     1      25.131  34.948  -4.094  1.00  0.00    -0.356 OA
HETATM   22  C14 UNL     1      25.652  34.131  -3.036  1.00  0.00     0.210 C 
ENDBRANCH  18  21
ENDBRANCH   1  15
BRANCH   1  23
HETATM   23  C17 UNL     1      20.475  33.640  -8.013  1.00  0.00     0.207 C 
HETATM   24  C18 UNL     1      20.161  34.487  -9.206  1.00  0.00     0.042 C 
BRANCH  23  25
HETATM   25  N4  UNL     1      19.357  32.697  -7.868  1.00  0.00    -0.073 N 
ATOM     26  H43 UNL     1      19.417  32.157  -7.006  1.00  0.00     0.274 HD
ATOM     27  H42 UNL     1      18.473  33.172  -7.680  1.00  0.00     0.274 HD
ATOM     28  H41 UNL     1      19.308  32.102  -8.695  1.00  0.00     0.274 HD
ENDBRANCH  23  25
ENDBRANCH   1  23
TORSDOF 7
ENDMDL
MODEL 5
REMARK VINA RESULT: -6.880138703      1.761      2.414
REMARK  7 active torsions:
REMARK  status: ('A' for Active; 'I' for Inactive)
REMARK    1  A    between atoms: C2_2  and  N1_3 
REMARK    2  A    between atoms: C8_11  and  N3_12 
REMARK    3  A    between atoms: N3_12  and  C9_14 
REMARK    4  A    between atoms: C9_14  and  C10_15 
REMARK    5  A    between atoms: C9_14  and  C17_23 
REMARK    6  A    between atoms: C13_18  and  O1_19 
REMARK    7  A    between atoms: C17_23  and  N4_25 
ROOT
HETATM    1  C9  UNL     1      21.729  32.868  -8.139  1.00  0.00     0.162 C 
ENDROOT
BRANCH   1   2
HETATM    2  N3  UNL     1      21.635  31.462  -7.980  1.00  0.00    -0.215 N 
ATOM      3  H3  UNL     1      21.392  31.140  -7.043  1.00  0.00     0.178 HD
BRANCH   2   4
HETATM    4  C8  UNL     1      21.813  30.546  -8.845  1.00  0.00     0.681 A 
HETATM    5  N1  UNL     1      22.222  29.317  -8.479  1.00  0.00    -0.188 N 
HETATM    6  C3  UNL     1      22.422  28.325  -9.364  1.00  0.00     0.027 A 
HETATM    7  C4  UNL     1      22.868  26.980  -8.971  1.00  0.00     0.069 C 
HETATM    8  C5  UNL     1      22.194  28.577 -10.715  1.00  0.00     0.050 A 
HETATM    9  C6  UNL     1      21.775  29.833 -11.098  1.00  0.00     0.024 A 
HETATM   10  C7  UNL     1      21.517  30.164 -12.523  1.00  0.00     0.068 C 
HETATM   11  N2  UNL     1      21.598  30.779 -10.151  1.00  0.00    -0.196 N 
ATOM     12  H2  UNL     1      21.288  31.708 -10.439  1.00  0.00     0.184 HD
BRANCH   5  13
HETATM   13  C2  UNL     1      22.473  29.005  -7.076  1.00  0.00     0.143 C 
HETATM   14  C1  UNL     1      23.937  29.180  -6.756  1.00  0.00     0.027 C 
ENDBRANCH   5  13
ENDBRANCH   2   4
ENDBRANCH   1   2
BRANCH   1  15
HETATM   15  C10 UNL     1      22.634  33.421  -7.069  1.00  0.00    -0.033 A 
HETATM   16  C11 UNL     1      22.980  32.636  -5.990  1.00  0.00     0.012 A 
HETATM   17  C12 UNL     1      23.802  33.076  -4.973  1.00  0.00     0.037 A 
HETATM   18  C13 UNL     1      24.275  34.369  -5.087  1.00  0.00     0.068 A 
HETATM   19  C15 UNL     1      23.937  35.164  -6.160  1.00  0.00     0.037 A 
HETATM   20  C16 UNL     1      23.116  34.712  -7.167  1.00  0.00     0.012 A 
BRANCH  18  21
HETATM   21  O1  UNL     1      25.101  34.822  -4.071  1.00  0.00    -0.356 OA
HETATM   22  C14 UNL     1      25.596  33.923  -3.068  1.00  0.00     0.210 C 
ENDBRANCH  18  21
ENDBRANCH   1  15
BRANCH   1  23
HETATM   23  C17 UNL     1      20.432  33.612  -8.037  1.00  0.00     0.207 C 
HETATM   24  C18 UNL     1      20.103  34.470  -9.220  1.00  0.00     0.042 C 
BRANCH  23  25
HETATM   25  N4  UNL     1      19.328  32.651  -7.903  1.00  0.00    -0.073 N 
ATOM     26  H43 UNL     1      19.553  31.746  -8.315  1.00  0.00     0.274 HD
ATOM     27  H42 UNL     1      19.199  32.343  -6.939  1.00  0.00     0.274 HD
ATOM     28  H41 UNL     1      18.479  33.055  -8.297  1.00  0.00     0.274 HD
ENDBRANCH  23  25
ENDBRANCH   1  23
TORSDOF 7
ENDMDL
