MODEL 1
REMARK VINA RESULT: -6.672769733      0.000      0.000
REMARK  8 active torsions:
REMARK  status: ('A' for Active; 'I' for Inactive)
REMARK    1  A    between atoms: O1_1  and  N1_3 
REMARK    2  A    between atoms: C1_5  and  C2_6 
REMARK    3  A    between atoms: C4_10  and  C5_11 
REMARK    4  A    between atoms: C6_12  and  O4_13 
REMARK    5  A    between atoms: C7_15  and  O5_16 
REMARK    6  A    between atoms: C8_18  and  O6_19 
REMARK    7  A    between atoms: C9_21  and  O7_22 
REMARK    8  A    between atoms: C10_24  and  O8_25 
ROOT
HETATM    1  C5  UNL     1      34.867  68.576  17.358  1.00  0.00     0.104 C 
HETATM    2  C6  UNL     1      33.866  69.461  16.694  1.00  0.00     0.161 C 
HETATM    3  C7  UNL     1      34.273  70.000  15.375  1.00  0.00     0.178 C 
HETATM    4  C8  UNL     1      34.875  68.969  14.466  1.00  0.00     0.180 C 
HETATM    5  C9  UNL     1      35.822  68.039  15.105  1.00  0.00     0.178 C 
HETATM    6  C10 UNL     1      35.506  67.569  16.464  1.00  0.00     0.161 C 
ENDROOT
BRANCH   1   7
HETATM    7  C4  UNL     1      34.213  67.955  18.565  1.00  0.00     0.275 C 
HETATM    8  O3  UNL     1      33.608  68.941  19.338  1.00  0.00    -0.337 OA
HETATM    9  C3  UNL     1      34.444  69.219  20.443  1.00  0.00     0.344 C 
HETATM   10  O2  UNL     1      34.296  68.146  21.318  1.00  0.00    -0.332 OA
HETATM   11  C2  UNL     1      34.536  66.987  20.581  1.00  0.00     0.307 C 
HETATM   12  O9  UNL     1      35.119  67.251  19.347  1.00  0.00    -0.326 OA
BRANCH  11  13
HETATM   13  C1  UNL     1      33.281  66.226  20.454  1.00  0.00     0.147 C 
HETATM   14  N1  UNL     1      33.306  64.993  20.110  1.00  0.00    -0.280 N 
ATOM     15  H1  UNL     1      32.438  64.464  20.022  1.00  0.00     0.193 HD
BRANCH  14  16
HETATM   16  O1  UNL     1      34.514  64.392  19.861  1.00  0.00    -0.290 OA
ATOM     17  H1  UNL     1      34.896  64.462  18.995  1.00  0.00     0.244 HD
ENDBRANCH  14  16
ENDBRANCH  11  13
ENDBRANCH   1   7
BRANCH   2  18
HETATM   18  O4  UNL     1      32.697  68.692  16.498  1.00  0.00    -0.392 OA
ATOM     19  H4  UNL     1      32.155  69.163  15.876  1.00  0.00     0.210 HD
ENDBRANCH   2  18
BRANCH   6  20
HETATM   20  O8  UNL     1      34.763  66.367  16.442  1.00  0.00    -0.392 OA
ATOM     21  H8  UNL     1      35.299  65.631  16.711  1.00  0.00     0.210 HD
ENDBRANCH   6  20
BRANCH   3  22
HETATM   22  O5  UNL     1      35.116  71.119  15.479  1.00  0.00    -0.390 OA
ATOM     23  H5  UNL     1      34.744  71.813  16.011  1.00  0.00     0.210 HD
ENDBRANCH   3  22
BRANCH   5  24
HETATM   24  O7  UNL     1      37.117  68.608  15.070  1.00  0.00    -0.390 OA
ATOM     25  H7  UNL     1      37.103  69.433  15.541  1.00  0.00     0.210 HD
ENDBRANCH   5  24
BRANCH   4  26
HETATM   26  O6  UNL     1      33.843  68.314  13.762  1.00  0.00    -0.390 OA
ATOM     27  H6  UNL     1      33.967  67.374  13.829  1.00  0.00     0.210 HD
ENDBRANCH   4  26
TORSDOF 8
ENDMDL
MODEL 2
REMARK VINA RESULT: -6.641989094      2.450      6.118
REMARK  8 active torsions:
REMARK  status: ('A' for Active; 'I' for Inactive)
REMARK    1  A    between atoms: O1_1  and  N1_3 
REMARK    2  A    between atoms: C1_5  and  C2_6 
REMARK    3  A    between atoms: C4_10  and  C5_11 
REMARK    4  A    between atoms: C6_12  and  O4_13 
REMARK    5  A    between atoms: C7_15  and  O5_16 
REMARK    6  A    between atoms: C8_18  and  O6_19 
REMARK    7  A    between atoms: C9_21  and  O7_22 
REMARK    8  A    between atoms: C10_24  and  O8_25 
ROOT
HETATM    1  C5  UNL     1      33.614  67.592  20.466  1.00  0.00     0.104 C 
HETATM    2  C6  UNL     1      33.741  66.173  20.907  1.00  0.00     0.161 C 
HETATM    3  C7  UNL     1      33.270  65.893  22.285  1.00  0.00     0.178 C 
HETATM    4  C8  UNL     1      31.942  66.515  22.602  1.00  0.00     0.180 C 
HETATM    5  C9  UNL     1      31.761  67.897  22.125  1.00  0.00     0.178 C 
HETATM    6  C10 UNL     1      32.316  68.242  20.806  1.00  0.00     0.161 C 
ENDROOT
BRANCH   1   7
HETATM    7  C4  UNL     1      33.930  67.654  18.995  1.00  0.00     0.275 C 
HETATM    8  O3  UNL     1      35.195  67.121  18.758  1.00  0.00    -0.337 OA
HETATM    9  C3  UNL     1      36.103  68.190  18.581  1.00  0.00     0.344 C 
HETATM   10  O2  UNL     1      35.851  68.705  17.312  1.00  0.00    -0.332 OA
HETATM   11  C2  UNL     1      34.485  68.980  17.251  1.00  0.00     0.307 C 
HETATM   12  O9  UNL     1      33.879  68.951  18.502  1.00  0.00    -0.326 OA
BRANCH  11  13
HETATM   13  C1  UNL     1      33.847  68.053  16.300  1.00  0.00     0.147 C 
HETATM   14  N1  UNL     1      34.219  68.029  15.075  1.00  0.00    -0.280 N 
ATOM     15  H1  UNL     1      33.778  67.388  14.415  1.00  0.00     0.193 HD
BRANCH  14  16
HETATM   16  O1  UNL     1      35.217  68.874  14.662  1.00  0.00    -0.290 OA
ATOM     17  H1  UNL     1      36.027  68.912  15.157  1.00  0.00     0.244 HD
ENDBRANCH  14  16
ENDBRANCH  11  13
ENDBRANCH   1   7
BRANCH   2  18
HETATM   18  O4  UNL     1      32.962  65.392  20.024  1.00  0.00    -0.392 OA
ATOM     19  H4  UNL     1      32.197  65.102  20.508  1.00  0.00     0.210 HD
ENDBRANCH   2  18
BRANCH   6  20
HETATM   20  O8  UNL     1      31.369  68.051  19.774  1.00  0.00    -0.392 OA
ATOM     21  H8  UNL     1      31.105  68.882  19.397  1.00  0.00     0.210 HD
ENDBRANCH   6  20
BRANCH   3  22
HETATM   22  O5  UNL     1      34.219  66.227  23.265  1.00  0.00    -0.390 OA
ATOM     23  H5  UNL     1      33.897  66.099  24.149  1.00  0.00     0.210 HD
ENDBRANCH   3  22
BRANCH   5  24
HETATM   24  O7  UNL     1      32.245  68.789  23.111  1.00  0.00    -0.390 OA
ATOM     25  H7  UNL     1      32.312  68.326  23.938  1.00  0.00     0.210 HD
ENDBRANCH   5  24
BRANCH   4  26
HETATM   26  O6  UNL     1      30.912  65.644  22.186  1.00  0.00    -0.390 OA
ATOM     27  H6  UNL     1      31.129  64.757  22.448  1.00  0.00     0.210 HD
ENDBRANCH   4  26
TORSDOF 8
ENDMDL
MODEL 3
REMARK VINA RESULT: -6.634474339      2.595      5.949
REMARK  8 active torsions:
REMARK  status: ('A' for Active; 'I' for Inactive)
REMARK    1  A    between atoms: O1_1  and  N1_3 
REMARK    2  A    between atoms: C1_5  and  C2_6 
REMARK    3  A    between atoms: C4_10  and  C5_11 
REMARK    4  A    between atoms: C6_12  and  O4_13 
REMARK    5  A    between atoms: C7_15  and  O5_16 
REMARK    6  A    between atoms: C8_18  and  O6_19 
REMARK    7  A    between atoms: C9_21  and  O7_22 
REMARK    8  A    between atoms: C10_24  and  O8_25 
ROOT
HETATM    1  C5  UNL     1      32.965  67.913  20.180  1.00  0.00     0.104 C 
HETATM    2  C6  UNL     1      33.458  67.039  21.283  1.00  0.00     0.161 C 
HETATM    3  C7  UNL     1      32.610  67.013  22.499  1.00  0.00     0.178 C 
HETATM    4  C8  UNL     1      31.147  66.858  22.204  1.00  0.00     0.180 C 
HETATM    5  C9  UNL     1      30.640  67.662  21.079  1.00  0.00     0.178 C 
HETATM    6  C10 UNL     1      31.505  67.804  19.897  1.00  0.00     0.161 C 
ENDROOT
BRANCH   1   7
HETATM    7  C4  UNL     1      33.817  67.657  18.964  1.00  0.00     0.275 C 
HETATM    8  O3  UNL     1      35.153  67.535  19.337  1.00  0.00    -0.337 OA
HETATM    9  C3  UNL     1      35.812  68.748  19.038  1.00  0.00     0.344 C 
HETATM   10  O2  UNL     1      35.981  68.766  17.656  1.00  0.00    -0.332 OA
HETATM   11  C2  UNL     1      34.725  68.538  17.093  1.00  0.00     0.307 C 
HETATM   12  O9  UNL     1      33.695  68.665  18.017  1.00  0.00    -0.326 OA
BRANCH  11  13
HETATM   13  C1  UNL     1      34.723  67.222  16.431  1.00  0.00     0.147 C 
HETATM   14  N1  UNL     1      35.305  67.067  15.301  1.00  0.00    -0.280 N 
ATOM     15  H1  UNL     1      35.305  66.157  14.841  1.00  0.00     0.193 HD
BRANCH  14  16
HETATM   16  O1  UNL     1      35.929  68.140  14.717  1.00  0.00    -0.290 OA
ATOM     17  H1  UNL     1      36.235  68.067  13.821  1.00  0.00     0.244 HD
ENDBRANCH  14  16
ENDBRANCH  11  13
ENDBRANCH   1   7
BRANCH   2  18
HETATM   18  O4  UNL     1      33.517  65.722  20.776  1.00  0.00    -0.392 OA
ATOM     19  H4  UNL     1      33.880  65.777  19.899  1.00  0.00     0.210 HD
ENDBRANCH   2  18
BRANCH   6  20
HETATM   20  O8  UNL     1      31.250  66.797  18.938  1.00  0.00    -0.392 OA
ATOM     21  H8  UNL     1      30.418  66.371  19.106  1.00  0.00     0.210 HD
ENDBRANCH   6  20
BRANCH   3  22
HETATM   22  O5  UNL     1      32.831  68.114  23.343  1.00  0.00    -0.390 OA
ATOM     23  H5  UNL     1      32.050  68.380  23.814  1.00  0.00     0.210 HD
ENDBRANCH   3  22
BRANCH   5  24
HETATM   24  O7  UNL     1      30.255  68.934  21.562  1.00  0.00    -0.390 OA
ATOM     25  H7  UNL     1      29.400  68.863  21.969  1.00  0.00     0.210 HD
ENDBRANCH   5  24
BRANCH   4  26
HETATM   26  O6  UNL     1      30.841  65.485  22.089  1.00  0.00    -0.390 OA
ATOM     27  H6  UNL     1      30.057  65.383  21.562  1.00  0.00     0.210 HD
ENDBRANCH   4  26
TORSDOF 8
ENDMDL
MODEL 4
REMARK VINA RESULT: -6.509762318      2.614      5.570
REMARK  8 active torsions:
REMARK  status: ('A' for Active; 'I' for Inactive)
REMARK    1  A    between atoms: O1_1  and  N1_3 
REMARK    2  A    between atoms: C1_5  and  C2_6 
REMARK    3  A    between atoms: C4_10  and  C5_11 
REMARK    4  A    between atoms: C6_12  and  O4_13 
REMARK    5  A    between atoms: C7_15  and  O5_16 
REMARK    6  A    between atoms: C8_18  and  O6_19 
REMARK    7  A    between atoms: C9_21  and  O7_22 
REMARK    8  A    between atoms: C10_24  and  O8_25 
ROOT
HETATM    1  C5  UNL     1      34.156  67.391  17.598  1.00  0.00     0.104 C 
HETATM    2  C6  UNL     1      32.743  67.868  17.608  1.00  0.00     0.161 C 
HETATM    3  C7  UNL     1      31.824  67.109  18.489  1.00  0.00     0.178 C 
HETATM    4  C8  UNL     1      32.388  66.841  19.854  1.00  0.00     0.180 C 
HETATM    5  C9  UNL     1      33.802  66.427  19.883  1.00  0.00     0.178 C 
HETATM    6  C10 UNL     1      34.724  67.080  18.941  1.00  0.00     0.161 C 
ENDROOT
BRANCH   1   7
HETATM    7  C4  UNL     1      34.982  68.390  16.831  1.00  0.00     0.275 C 
HETATM    8  O3  UNL     1      34.565  68.432  15.503  1.00  0.00    -0.337 OA
HETATM    9  C3  UNL     1      35.482  67.692  14.724  1.00  0.00     0.344 C 
HETATM   10  O2  UNL     1      36.621  68.484  14.611  1.00  0.00    -0.332 OA
HETATM   11  C2  UNL     1      36.993  68.844  15.906  1.00  0.00     0.307 C 
HETATM   12  O9  UNL     1      36.337  68.096  16.877  1.00  0.00    -0.326 OA
BRANCH  11  13
HETATM   13  C1  UNL     1      36.785  70.292  16.084  1.00  0.00     0.147 C 
HETATM   14  N1  UNL     1      37.461  71.131  15.391  1.00  0.00    -0.280 N 
ATOM     15  H1  UNL     1      37.319  72.133  15.513  1.00  0.00     0.193 HD
BRANCH  14  16
HETATM   16  O1  UNL     1      38.378  70.664  14.484  1.00  0.00    -0.290 OA
ATOM     17  H1  UNL     1      38.291  70.909  13.570  1.00  0.00     0.244 HD
ENDBRANCH  14  16
ENDBRANCH  11  13
ENDBRANCH   1   7
BRANCH   2  18
HETATM   18  O4  UNL     1      32.760  69.206  18.061  1.00  0.00    -0.392 OA
ATOM     19  H4  UNL     1      32.380  69.211  18.931  1.00  0.00     0.210 HD
ENDBRANCH   2  18
BRANCH   6  20
HETATM   20  O8  UNL     1      35.330  68.223  19.510  1.00  0.00    -0.392 OA
ATOM     21  H8  UNL     1      36.153  68.423  19.079  1.00  0.00     0.210 HD
ENDBRANCH   6  20
BRANCH   3  22
HETATM   22  O5  UNL     1      31.362  65.919  17.903  1.00  0.00    -0.390 OA
ATOM     23  H5  UNL     1      30.548  66.034  17.427  1.00  0.00     0.210 HD
ENDBRANCH   3  22
BRANCH   5  24
HETATM   24  O7  UNL     1      33.870  65.021  19.742  1.00  0.00    -0.390 OA
ATOM     25  H7  UNL     1      34.781  64.762  19.671  1.00  0.00     0.210 HD
ENDBRANCH   5  24
BRANCH   4  26
HETATM   26  O6  UNL     1      32.114  67.942  20.693  1.00  0.00    -0.390 OA
ATOM     27  H6  UNL     1      32.850  68.079  21.278  1.00  0.00     0.210 HD
ENDBRANCH   4  26
TORSDOF 8
ENDMDL
MODEL 5
REMARK VINA RESULT: -6.356400437      2.288      6.038
REMARK  8 active torsions:
REMARK  status: ('A' for Active; 'I' for Inactive)
REMARK    1  A    between atoms: O1_1  and  N1_3 
REMARK    2  A    between atoms: C1_5  and  C2_6 
REMARK    3  A    between atoms: C4_10  and  C5_11 
REMARK    4  A    between atoms: C6_12  and  O4_13 
REMARK    5  A    between atoms: C7_15  and  O5_16 
REMARK    6  A    between atoms: C8_18  and  O6_19 
REMARK    7  A    between atoms: C9_21  and  O7_22 
REMARK    8  A    between atoms: C10_24  and  O8_25 
ROOT
HETATM    1  C5  UNL     1      32.851  67.603  20.185  1.00  0.00     0.104 C 
HETATM    2  C6  UNL     1      33.692  68.196  21.265  1.00  0.00     0.161 C 
HETATM    3  C7  UNL     1      33.205  67.967  22.646  1.00  0.00     0.178 C 
HETATM    4  C8  UNL     1      32.787  66.549  22.906  1.00  0.00     0.180 C 
HETATM    5  C9  UNL     1      32.007  65.913  21.830  1.00  0.00     0.178 C 
HETATM    6  C10 UNL     1      32.392  66.208  20.441  1.00  0.00     0.161 C 
ENDROOT
BRANCH   1   7
HETATM    7  C4  UNL     1      33.595  67.745  18.883  1.00  0.00     0.275 C 
HETATM    8  O3  UNL     1      34.018  69.061  18.718  1.00  0.00    -0.337 OA
HETATM    9  C3  UNL     1      33.141  69.702  17.814  1.00  0.00     0.344 C 
HETATM   10  O2  UNL     1      33.466  69.217  16.551  1.00  0.00    -0.332 OA
HETATM   11  C2  UNL     1      33.432  67.825  16.631  1.00  0.00     0.307 C 
HETATM   12  O9  UNL     1      32.819  67.372  17.794  1.00  0.00    -0.326 OA
BRANCH  11  13
HETATM   13  C1  UNL     1      34.800  67.298  16.479  1.00  0.00     0.147 C 
HETATM   14  N1  UNL     1      35.376  67.318  15.336  1.00  0.00    -0.280 N 
ATOM     15  H1  UNL     1      36.322  66.954  15.229  1.00  0.00     0.193 HD
BRANCH  14  16
HETATM   16  O1  UNL     1      34.704  67.835  14.257  1.00  0.00    -0.290 OA
ATOM     17  H1  UNL     1      34.081  67.288  13.794  1.00  0.00     0.244 HD
ENDBRANCH  14  16
ENDBRANCH  11  13
ENDBRANCH   1   7
BRANCH   2  18
HETATM   18  O4  UNL     1      34.974  67.611  21.162  1.00  0.00    -0.392 OA
ATOM     19  H4  UNL     1      35.499  67.962  21.872  1.00  0.00     0.210 HD
ENDBRANCH   2  18
BRANCH   6  20
HETATM   20  O8  UNL     1      33.326  65.270  19.946  1.00  0.00    -0.392 OA
ATOM     21  H8  UNL     1      32.893  64.467  19.680  1.00  0.00     0.210 HD
ENDBRANCH   6  20
BRANCH   3  22
HETATM   22  O5  UNL     1      32.187  68.858  23.022  1.00  0.00    -0.390 OA
ATOM     23  H5  UNL     1      31.548  69.001  22.334  1.00  0.00     0.210 HD
ENDBRANCH   3  22
BRANCH   5  24
HETATM   24  O7  UNL     1      30.635  66.196  22.031  1.00  0.00    -0.390 OA
ATOM     25  H7  UNL     1      30.373  66.886  21.433  1.00  0.00     0.210 HD
ENDBRANCH   5  24
BRANCH   4  26
HETATM   26  O6  UNL     1      33.917  65.796  23.292  1.00  0.00    -0.390 OA
ATOM     27  H6  UNL     1      33.629  64.990  23.705  1.00  0.00     0.210 HD
ENDBRANCH   4  26
TORSDOF 8
ENDMDL
