MODEL 1
REMARK VINA RESULT: -9.513109961      0.000      0.000
REMARK  12 active torsions:
REMARK  status: ('A' for Active; 'I' for Inactive)
REMARK    1  A    between atoms: C4_4  and  N1_5 
REMARK    2  A    between atoms: N1_5  and  C5_7 
REMARK    3  A    between atoms: C13_15  and  N2_16 
REMARK    4  A    between atoms: N2_16  and  C14_18 
REMARK    5  A    between atoms: C14_18  and  C15_19 
REMARK    6  A    between atoms: C15_19  and  C16_20 
REMARK    7  A    between atoms: C16_20  and  C17_21 
REMARK    8  A    between atoms: C17_21  and  C18_22 
REMARK    9  A    between atoms: C18_22  and  C19_23 
REMARK   10  A    between atoms: C19_23  and  N3_24 
REMARK   11  A    between atoms: N3_24  and  C20_27 
REMARK   12  A    between atoms: C20_27  and  C21_28 
ROOT
HETATM    1  N2  UNL     1       7.669 -65.070  60.770  1.00  0.00    -0.413 N 
ATOM      2  H2  UNL     1       7.970 -65.081  61.745  1.00  0.00     0.153 HD
ENDROOT
BRANCH   1   3
HETATM    3  C13 UNL     1       7.072 -66.219  60.175  1.00  0.00     0.105 C 
HETATM    4  C2  UNL     1       6.986 -67.364  61.133  1.00  0.00    -0.062 C 
HETATM    5  C1  UNL     1       7.281 -67.356  62.390  1.00  0.00     0.016 C 
HETATM    6  C3  UNL     1       6.491 -68.638  60.486  1.00  0.00     0.087 C 
HETATM    7  C4  UNL     1       7.744 -69.154  59.717  1.00  0.00    -0.014 C 
HETATM    8  C11 UNL     1       8.464 -68.042  59.082  1.00  0.00     0.054 C 
HETATM    9  C12 UNL     1       7.680 -66.744  58.925  1.00  0.00     0.035 C 
BRANCH   7  10
HETATM   10  N1  UNL     1       7.451 -70.354  59.114  1.00  0.00    -0.391 N 
ATOM     11  H1  UNL     1       6.717 -70.321  58.406  1.00  0.00     0.159 HD
BRANCH  10  12
HETATM   12  C5  UNL     1       8.004 -71.583  59.330  1.00  0.00     0.081 C 
HETATM   13  C6  UNL     1       7.031 -72.696  59.593  1.00  0.00     0.025 C 
HETATM   14  C7  UNL     1       7.769 -74.031  59.693  1.00  0.00     0.002 C 
HETATM   15  C8  UNL     1       8.709 -73.935  60.880  1.00  0.00     0.000 C 
HETATM   16  C9  UNL     1       9.702 -72.818  60.576  1.00  0.00     0.002 C 
HETATM   17  C10 UNL     1       8.916 -71.516  60.579  1.00  0.00     0.025 C 
ENDBRANCH  10  12
ENDBRANCH   7  10
ENDBRANCH   1   3
BRANCH   1  18
HETATM   18  C14 UNL     1       7.833 -63.911  59.971  1.00  0.00     0.114 C 
BRANCH  18  19
HETATM   19  C15 UNL     1       9.253 -63.455  59.955  1.00  0.00     0.019 C 
BRANCH  19  20
HETATM   20  C16 UNL     1      10.162 -64.039  58.923  1.00  0.00     0.002 C 
BRANCH  20  21
HETATM   21  C17 UNL     1      10.033 -63.358  57.623  1.00  0.00     0.002 C 
BRANCH  21  22
HETATM   22  C18 UNL     1       9.293 -64.076  56.538  1.00  0.00     0.027 C 
BRANCH  22  23
HETATM   23  C19 UNL     1       8.169 -63.332  55.905  1.00  0.00     0.232 C 
BRANCH  23  24
HETATM   24  N3  UNL     1       7.838 -63.685  54.555  1.00  0.00    -0.069 N 
ATOM     25  H32 UNL     1       8.085 -62.972  53.868  1.00  0.00     0.277 HD
ATOM     26  H31 UNL     1       8.421 -64.427  54.167  1.00  0.00     0.277 HD
BRANCH  24  27
HETATM   27  C20 UNL     1       6.379 -64.016  54.588  1.00  0.00     0.296 C 
BRANCH  27  28
HETATM   28  C21 UNL     1       6.307 -65.482  54.932  1.00  0.00     0.078 A 
HETATM   29  C22 UNL     1       5.541 -66.020  55.945  1.00  0.00     0.036 A 
HETATM   30  C23 UNL     1       5.769 -67.395  55.891  1.00  0.00     0.027 A 
HETATM   31  C24 UNL     1       6.665 -67.547  54.834  1.00  0.00     0.142 A 
HETATM   32  O1  UNL     1       6.969 -66.424  54.284  1.00  0.00    -0.325 OA
ENDBRANCH  27  28
ENDBRANCH  24  27
ENDBRANCH  23  24
ENDBRANCH  22  23
ENDBRANCH  21  22
ENDBRANCH  20  21
ENDBRANCH  19  20
ENDBRANCH  18  19
ENDBRANCH   1  18
TORSDOF 12
ENDMDL
MODEL 2
REMARK VINA RESULT: -9.422791093      0.886      1.379
REMARK  12 active torsions:
REMARK  status: ('A' for Active; 'I' for Inactive)
REMARK    1  A    between atoms: C4_4  and  N1_5 
REMARK    2  A    between atoms: N1_5  and  C5_7 
REMARK    3  A    between atoms: C13_15  and  N2_16 
REMARK    4  A    between atoms: N2_16  and  C14_18 
REMARK    5  A    between atoms: C14_18  and  C15_19 
REMARK    6  A    between atoms: C15_19  and  C16_20 
REMARK    7  A    between atoms: C16_20  and  C17_21 
REMARK    8  A    between atoms: C17_21  and  C18_22 
REMARK    9  A    between atoms: C18_22  and  C19_23 
REMARK   10  A    between atoms: C19_23  and  N3_24 
REMARK   11  A    between atoms: N3_24  and  C20_27 
REMARK   12  A    between atoms: C20_27  and  C21_28 
ROOT
HETATM    1  N2  UNL     1       7.430 -65.402  61.039  1.00  0.00    -0.413 N 
ATOM      2  H2  UNL     1       7.800 -65.285  61.982  1.00  0.00     0.153 HD
ENDROOT
BRANCH   1   3
HETATM    3  C13 UNL     1       6.797 -66.618  60.646  1.00  0.00     0.105 C 
HETATM    4  C2  UNL     1       6.804 -67.632  61.744  1.00  0.00    -0.062 C 
HETATM    5  C1  UNL     1       7.204 -67.465  62.960  1.00  0.00     0.016 C 
HETATM    6  C3  UNL     1       6.271 -68.978  61.307  1.00  0.00     0.087 C 
HETATM    7  C4  UNL     1       7.460 -69.587  60.505  1.00  0.00    -0.014 C 
HETATM    8  C11 UNL     1       8.112 -68.564  59.677  1.00  0.00     0.054 C 
HETATM    9  C12 UNL     1       7.304 -67.296  59.424  1.00  0.00     0.035 C 
BRANCH   7  10
HETATM   10  N1  UNL     1       7.130 -70.853  60.086  1.00  0.00    -0.391 N 
ATOM     11  H1  UNL     1       6.360 -70.907  59.419  1.00  0.00     0.159 HD
BRANCH  10  12
HETATM   12  C5  UNL     1       7.689 -72.049  60.436  1.00  0.00     0.081 C 
HETATM   13  C6  UNL     1       9.185 -72.122  60.332  1.00  0.00     0.025 C 
HETATM   14  C7  UNL     1       9.687 -73.463  60.868  1.00  0.00     0.002 C 
HETATM   15  C8  UNL     1       9.097 -74.547  59.986  1.00  0.00     0.000 C 
HETATM   16  C9  UNL     1       7.581 -74.468  60.132  1.00  0.00     0.002 C 
HETATM   17  C10 UNL     1       7.145 -73.155  59.501  1.00  0.00     0.025 C 
ENDBRANCH  10  12
ENDBRANCH   7  10
ENDBRANCH   1   3
BRANCH   1  18
HETATM   18  C14 UNL     1       7.530 -64.360  60.083  1.00  0.00     0.114 C 
BRANCH  18  19
HETATM   19  C15 UNL     1       8.948 -63.946  59.874  1.00  0.00     0.019 C 
BRANCH  19  20
HETATM   20  C16 UNL     1       9.697 -64.570  58.742  1.00  0.00     0.002 C 
BRANCH  20  21
HETATM   21  C17 UNL     1       8.864 -64.708  57.536  1.00  0.00     0.002 C 
BRANCH  21  22
HETATM   22  C18 UNL     1       9.146 -63.783  56.392  1.00  0.00     0.027 C 
BRANCH  22  23
HETATM   23  C19 UNL     1       7.957 -63.236  55.682  1.00  0.00     0.232 C 
BRANCH  23  24
HETATM   24  N3  UNL     1       7.601 -63.860  54.440  1.00  0.00    -0.069 N 
ATOM     25  H32 UNL     1       7.830 -63.303  53.617  1.00  0.00     0.277 HD
ATOM     26  H31 UNL     1       8.182 -64.665  54.201  1.00  0.00     0.277 HD
BRANCH  24  27
HETATM   27  C20 UNL     1       6.145 -64.181  54.570  1.00  0.00     0.296 C 
BRANCH  27  28
HETATM   28  C21 UNL     1       6.091 -65.600  55.079  1.00  0.00     0.078 A 
HETATM   29  C22 UNL     1       6.618 -66.695  54.426  1.00  0.00     0.036 A 
HETATM   30  C23 UNL     1       6.354 -67.783  55.256  1.00  0.00     0.027 A 
HETATM   31  C24 UNL     1       5.682 -67.225  56.342  1.00  0.00     0.142 A 
HETATM   32  O1  UNL     1       5.537 -65.951  56.225  1.00  0.00    -0.325 OA
ENDBRANCH  27  28
ENDBRANCH  24  27
ENDBRANCH  23  24
ENDBRANCH  22  23
ENDBRANCH  21  22
ENDBRANCH  20  21
ENDBRANCH  19  20
ENDBRANCH  18  19
ENDBRANCH   1  18
TORSDOF 12
ENDMDL
MODEL 3
REMARK VINA RESULT: -9.369068901      1.062      1.316
REMARK  12 active torsions:
REMARK  status: ('A' for Active; 'I' for Inactive)
REMARK    1  A    between atoms: C4_4  and  N1_5 
REMARK    2  A    between atoms: N1_5  and  C5_7 
REMARK    3  A    between atoms: C13_15  and  N2_16 
REMARK    4  A    between atoms: N2_16  and  C14_18 
REMARK    5  A    between atoms: C14_18  and  C15_19 
REMARK    6  A    between atoms: C15_19  and  C16_20 
REMARK    7  A    between atoms: C16_20  and  C17_21 
REMARK    8  A    between atoms: C17_21  and  C18_22 
REMARK    9  A    between atoms: C18_22  and  C19_23 
REMARK   10  A    between atoms: C19_23  and  N3_24 
REMARK   11  A    between atoms: N3_24  and  C20_27 
REMARK   12  A    between atoms: C20_27  and  C21_28 
ROOT
HETATM    1  N2  UNL     1       7.281 -66.083  59.252  1.00  0.00    -0.413 N 
ATOM      2  H2  UNL     1       6.810 -65.255  59.616  1.00  0.00     0.153 HD
ENDROOT
BRANCH   1   3
HETATM    3  C13 UNL     1       6.792 -67.391  59.541  1.00  0.00     0.105 C 
HETATM    4  C2  UNL     1       6.945 -67.738  60.987  1.00  0.00    -0.062 C 
HETATM    5  C1  UNL     1       7.346 -66.964  61.939  1.00  0.00     0.016 C 
HETATM    6  C3  UNL     1       6.569 -69.170  61.293  1.00  0.00     0.087 C 
HETATM    7  C4  UNL     1       7.806 -69.975  60.793  1.00  0.00    -0.014 C 
HETATM    8  C11 UNL     1       8.313 -69.427  59.528  1.00  0.00     0.054 C 
HETATM    9  C12 UNL     1       7.352 -68.525  58.760  1.00  0.00     0.035 C 
BRANCH   7  10
HETATM   10  N1  UNL     1       7.623 -71.310  61.060  1.00  0.00    -0.391 N 
ATOM     11  H1  UNL     1       7.088 -71.520  61.903  1.00  0.00     0.159 HD
BRANCH  10  12
HETATM   12  C5  UNL     1       8.058 -72.397  60.356  1.00  0.00     0.081 C 
HETATM   13  C6  UNL     1       6.987 -73.343  59.895  1.00  0.00     0.025 C 
HETATM   14  C7  UNL     1       7.593 -74.440  59.019  1.00  0.00     0.002 C 
HETATM   15  C8  UNL     1       8.568 -75.215  59.884  1.00  0.00     0.000 C 
HETATM   16  C9  UNL     1       9.658 -74.239  60.315  1.00  0.00     0.002 C 
HETATM   17  C10 UNL     1       9.005 -73.234  61.250  1.00  0.00     0.025 C 
ENDBRANCH  10  12
ENDBRANCH   7  10
ENDBRANCH   1   3
BRANCH   1  18
HETATM   18  C14 UNL     1       8.441 -65.965  58.445  1.00  0.00     0.114 C 
BRANCH  18  19
HETATM   19  C15 UNL     1       9.325 -64.861  58.918  1.00  0.00     0.019 C 
BRANCH  19  20
HETATM   20  C16 UNL     1       9.901 -63.940  57.891  1.00  0.00     0.002 C 
BRANCH  20  21
HETATM   21  C17 UNL     1       9.047 -63.841  56.695  1.00  0.00     0.002 C 
BRANCH  21  22
HETATM   22  C18 UNL     1       8.176 -62.630  56.567  1.00  0.00     0.027 C 
BRANCH  22  23
HETATM   23  C19 UNL     1       7.610 -62.369  55.214  1.00  0.00     0.232 C 
BRANCH  23  24
HETATM   24  N3  UNL     1       7.557 -63.482  54.310  1.00  0.00    -0.069 N 
ATOM     25  H32 UNL     1       7.899 -63.269  53.372  1.00  0.00     0.277 HD
ATOM     26  H31 UNL     1       8.234 -64.216  54.517  1.00  0.00     0.277 HD
BRANCH  24  27
HETATM   27  C20 UNL     1       6.133 -63.942  54.345  1.00  0.00     0.296 C 
BRANCH  27  28
HETATM   28  C21 UNL     1       6.187 -65.376  54.811  1.00  0.00     0.078 A 
HETATM   29  C22 UNL     1       5.494 -65.883  55.891  1.00  0.00     0.036 A 
HETATM   30  C23 UNL     1       5.828 -67.236  55.941  1.00  0.00     0.027 A 
HETATM   31  C24 UNL     1       6.704 -67.408  54.871  1.00  0.00     0.142 A 
HETATM   32  O1  UNL     1       6.903 -66.316  54.221  1.00  0.00    -0.325 OA
ENDBRANCH  27  28
ENDBRANCH  24  27
ENDBRANCH  23  24
ENDBRANCH  22  23
ENDBRANCH  21  22
ENDBRANCH  20  21
ENDBRANCH  19  20
ENDBRANCH  18  19
ENDBRANCH   1  18
TORSDOF 12
ENDMDL
MODEL 4
REMARK VINA RESULT: -9.096194162      1.412      2.438
REMARK  12 active torsions:
REMARK  status: ('A' for Active; 'I' for Inactive)
REMARK    1  A    between atoms: C4_4  and  N1_5 
REMARK    2  A    between atoms: N1_5  and  C5_7 
REMARK    3  A    between atoms: C13_15  and  N2_16 
REMARK    4  A    between atoms: N2_16  and  C14_18 
REMARK    5  A    between atoms: C14_18  and  C15_19 
REMARK    6  A    between atoms: C15_19  and  C16_20 
REMARK    7  A    between atoms: C16_20  and  C17_21 
REMARK    8  A    between atoms: C17_21  and  C18_22 
REMARK    9  A    between atoms: C18_22  and  C19_23 
REMARK   10  A    between atoms: C19_23  and  N3_24 
REMARK   11  A    between atoms: N3_24  and  C20_27 
REMARK   12  A    between atoms: C20_27  and  C21_28 
ROOT
HETATM    1  N2  UNL     1       6.473 -67.427  59.448  1.00  0.00    -0.413 N 
ATOM      2  H2  UNL     1       5.583 -67.889  59.256  1.00  0.00     0.153 HD
ENDROOT
BRANCH   1   3
HETATM    3  C13 UNL     1       7.603 -68.172  59.893  1.00  0.00     0.105 C 
HETATM    4  C2  UNL     1       8.029 -69.197  58.891  1.00  0.00    -0.062 C 
HETATM    5  C1  UNL     1       7.560 -69.366  57.700  1.00  0.00     0.016 C 
HETATM    6  C3  UNL     1       9.132 -70.096  59.398  1.00  0.00     0.087 C 
HETATM    7  C4  UNL     1       8.380 -71.082  60.341  1.00  0.00    -0.014 C 
HETATM    8  C11 UNL     1       7.357 -70.380  61.127  1.00  0.00     0.054 C 
HETATM    9  C12 UNL     1       7.502 -68.863  61.205  1.00  0.00     0.035 C 
BRANCH   7  10
HETATM   10  N1  UNL     1       9.265 -72.006  60.841  1.00  0.00    -0.391 N 
ATOM     11  H1  UNL     1      10.122 -71.621  61.239  1.00  0.00     0.159 HD
BRANCH  10  12
HETATM   12  C5  UNL     1       9.160 -73.367  60.879  1.00  0.00     0.081 C 
HETATM   13  C6  UNL     1      10.415 -74.125  60.555  1.00  0.00     0.025 C 
HETATM   14  C7  UNL     1      10.194 -75.624  60.754  1.00  0.00     0.002 C 
HETATM   15  C8  UNL     1       9.117 -76.052  59.774  1.00  0.00     0.000 C 
HETATM   16  C9  UNL     1       7.849 -75.290  60.142  1.00  0.00     0.002 C 
HETATM   17  C10 UNL     1       8.111 -73.823  59.837  1.00  0.00     0.025 C 
ENDBRANCH  10  12
ENDBRANCH   7  10
ENDBRANCH   1   3
BRANCH   1  18
HETATM   18  C14 UNL     1       6.618 -66.027  59.279  1.00  0.00     0.114 C 
BRANCH  18  19
HETATM   19  C15 UNL     1       7.856 -65.522  59.938  1.00  0.00     0.019 C 
BRANCH  19  20
HETATM   20  C16 UNL     1       8.944 -64.988  59.064  1.00  0.00     0.002 C 
BRANCH  20  21
HETATM   21  C17 UNL     1       8.560 -64.982  57.643  1.00  0.00     0.002 C 
BRANCH  21  22
HETATM   22  C18 UNL     1       9.115 -63.891  56.782  1.00  0.00     0.027 C 
BRANCH  22  23
HETATM   23  C19 UNL     1       8.124 -63.114  55.986  1.00  0.00     0.232 C 
BRANCH  23  24
HETATM   24  N3  UNL     1       7.941 -63.508  54.618  1.00  0.00    -0.069 N 
ATOM     25  H32 UNL     1       8.282 -62.824  53.942  1.00  0.00     0.277 HD
ATOM     26  H31 UNL     1       8.547 -64.274  54.325  1.00  0.00     0.277 HD
BRANCH  24  27
HETATM   27  C20 UNL     1       6.480 -63.809  54.493  1.00  0.00     0.296 C 
BRANCH  27  28
HETATM   28  C21 UNL     1       6.344 -65.276  54.814  1.00  0.00     0.078 A 
HETATM   29  C22 UNL     1       5.497 -65.803  55.767  1.00  0.00     0.036 A 
HETATM   30  C23 UNL     1       5.689 -67.182  55.710  1.00  0.00     0.027 A 
HETATM   31  C24 UNL     1       6.649 -67.350  54.714  1.00  0.00     0.142 A 
HETATM   32  O1  UNL     1       7.021 -66.230  54.200  1.00  0.00    -0.325 OA
ENDBRANCH  27  28
ENDBRANCH  24  27
ENDBRANCH  23  24
ENDBRANCH  22  23
ENDBRANCH  21  22
ENDBRANCH  20  21
ENDBRANCH  19  20
ENDBRANCH  18  19
ENDBRANCH   1  18
TORSDOF 12
ENDMDL
MODEL 5
REMARK VINA RESULT: -9.085404073      1.681      3.384
REMARK  12 active torsions:
REMARK  status: ('A' for Active; 'I' for Inactive)
REMARK    1  A    between atoms: C4_4  and  N1_5 
REMARK    2  A    between atoms: N1_5  and  C5_7 
REMARK    3  A    between atoms: C13_15  and  N2_16 
REMARK    4  A    between atoms: N2_16  and  C14_18 
REMARK    5  A    between atoms: C14_18  and  C15_19 
REMARK    6  A    between atoms: C15_19  and  C16_20 
REMARK    7  A    between atoms: C16_20  and  C17_21 
REMARK    8  A    between atoms: C17_21  and  C18_22 
REMARK    9  A    between atoms: C18_22  and  C19_23 
REMARK   10  A    between atoms: C19_23  and  N3_24 
REMARK   11  A    between atoms: N3_24  and  C20_27 
REMARK   12  A    between atoms: C20_27  and  C21_28 
ROOT
HETATM    1  N2  UNL     1       6.595 -66.073  59.842  1.00  0.00    -0.413 N 
ATOM      2  H2  UNL     1       6.627 -65.341  60.552  1.00  0.00     0.153 HD
ENDROOT
BRANCH   1   3
HETATM    3  C13 UNL     1       6.292 -67.421  60.194  1.00  0.00     0.105 C 
HETATM    4  C2  UNL     1       6.814 -67.777  61.549  1.00  0.00    -0.062 C 
HETATM    5  C1  UNL     1       7.372 -66.987  62.404  1.00  0.00     0.016 C 
HETATM    6  C3  UNL     1       6.634 -69.240  61.885  1.00  0.00     0.087 C 
HETATM    7  C4  UNL     1       7.772 -69.931  61.077  1.00  0.00    -0.014 C 
HETATM    8  C11 UNL     1       7.916 -69.323  59.747  1.00  0.00     0.054 C 
HETATM    9  C12 UNL     1       6.732 -68.493  59.263  1.00  0.00     0.035 C 
BRANCH   7  10
HETATM   10  N1  UNL     1       7.762 -71.281  61.333  1.00  0.00    -0.391 N 
ATOM     11  H1  UNL     1       7.470 -71.547  62.273  1.00  0.00     0.159 HD
BRANCH  10  12
HETATM   12  C5  UNL     1       8.089 -72.317  60.505  1.00  0.00     0.081 C 
HETATM   13  C6  UNL     1       6.929 -73.061  59.907  1.00  0.00     0.025 C 
HETATM   14  C7  UNL     1       7.430 -74.106  58.911  1.00  0.00     0.002 C 
HETATM   15  C8  UNL     1       8.276 -75.097  59.689  1.00  0.00     0.000 C 
HETATM   16  C9  UNL     1       9.458 -74.323  60.261  1.00  0.00     0.002 C 
HETATM   17  C10 UNL     1       8.897 -73.368  61.303  1.00  0.00     0.025 C 
ENDBRANCH  10  12
ENDBRANCH   7  10
ENDBRANCH   1   3
BRANCH   1  18
HETATM   18  C14 UNL     1       6.850 -65.778  58.480  1.00  0.00     0.114 C 
BRANCH  18  19
HETATM   19  C15 UNL     1       5.739 -64.990  57.873  1.00  0.00     0.019 C 
BRANCH  19  20
HETATM   20  C16 UNL     1       5.139 -65.495  56.601  1.00  0.00     0.002 C 
BRANCH  20  21
HETATM   21  C17 UNL     1       5.901 -66.622  56.038  1.00  0.00     0.002 C 
BRANCH  21  22
HETATM   22  C18 UNL     1       6.707 -66.362  54.804  1.00  0.00     0.027 C 
BRANCH  22  23
HETATM   23  C19 UNL     1       6.877 -64.933  54.419  1.00  0.00     0.232 C 
BRANCH  23  24
HETATM   24  N3  UNL     1       8.127 -64.317  54.758  1.00  0.00    -0.069 N 
ATOM     25  H32 UNL     1       8.749 -64.916  55.302  1.00  0.00     0.277 HD
ATOM     26  H31 UNL     1       8.754 -64.189  53.964  1.00  0.00     0.277 HD
BRANCH  24  27
HETATM   27  C20 UNL     1       7.756 -63.042  55.449  1.00  0.00     0.296 C 
BRANCH  27  28
HETATM   28  C21 UNL     1       8.832 -62.818  56.482  1.00  0.00     0.078 A 
HETATM   29  C22 UNL     1       9.637 -63.804  57.013  1.00  0.00     0.036 A 
HETATM   30  C23 UNL     1      10.483 -63.150  57.907  1.00  0.00     0.027 A 
HETATM   31  C24 UNL     1      10.094 -61.814  57.825  1.00  0.00     0.142 A 
HETATM   32  O1  UNL     1       9.131 -61.636  56.990  1.00  0.00    -0.325 OA
ENDBRANCH  27  28
ENDBRANCH  24  27
ENDBRANCH  23  24
ENDBRANCH  22  23
ENDBRANCH  21  22
ENDBRANCH  20  21
ENDBRANCH  19  20
ENDBRANCH  18  19
ENDBRANCH   1  18
TORSDOF 12
ENDMDL
