MODEL 1
REMARK VINA RESULT: -8.171598131      0.000      0.000
REMARK  14 active torsions:
REMARK  status: ('A' for Active; 'I' for Inactive)
REMARK    1  A    between atoms: C3_3  and  C4_4 
REMARK    2  A    between atoms: C5_5  and  C6_6 
REMARK    3  A    between atoms: C8_8  and  C9_9 
REMARK    4  A    between atoms: C10_10  and  C11_11 
REMARK    5  A    between atoms: C11_11  and  C13_13 
REMARK    6  A    between atoms: C13_13  and  C14_14 
REMARK    7  A    between atoms: C14_14  and  C15_15 
REMARK    8  A    between atoms: C15_15  and  C16_16 
REMARK    9  A    between atoms: C16_16  and  C18_18 
REMARK   10  A    between atoms: C19_21  and  O3_23 
REMARK   11  A    between atoms: C22_26  and  O4_27 
REMARK   12  A    between atoms: O4_27  and  C23_28 
REMARK   13  A    between atoms: C27_33  and  O6_34 
REMARK   14  A    between atoms: O6_34  and  C28_35 
ROOT
HETATM    1  C1  UNL     1     -18.610 -46.967 -50.400  1.00  0.00     0.020 C 
HETATM    2  C2  UNL     1     -19.194 -46.672 -51.563  1.00  0.00    -0.050 C 
HETATM    3  C3  UNL     1     -20.627 -46.785 -51.716  1.00  0.00    -0.018 C 
HETATM    4  C19 UNL     1     -21.064 -47.446 -52.996  1.00  0.00     0.084 C 
HETATM    5  C20 UNL     1     -21.940 -48.617 -52.509  1.00  0.00     0.051 C 
HETATM    6  C21 UNL     1     -19.905 -48.038 -53.730  1.00  0.00     0.082 C 
HETATM    7  C22 UNL     1     -18.725 -47.153 -53.943  1.00  0.00     0.082 C 
HETATM    8  C25 UNL     1     -19.065 -46.352 -55.221  1.00  0.00     0.042 C 
HETATM    9  C26 UNL     1     -17.936 -45.349 -55.343  1.00  0.00     0.036 C 
HETATM   10  C27 UNL     1     -18.121 -44.279 -54.323  1.00  0.00     0.140 C 
HETATM   11  C30 UNL     1     -18.322 -44.826 -52.924  1.00  0.00    -0.010 C 
HETATM   12  C31 UNL     1     -17.088 -44.308 -52.142  1.00  0.00     0.018 C 
HETATM   13  C32 UNL     1     -19.440 -44.009 -52.301  1.00  0.00     0.018 C 
HETATM   14  C33 UNL     1     -18.389 -46.273 -52.775  1.00  0.00     0.064 C 
ENDROOT
BRANCH   3  15
HETATM   15  C4  UNL     1     -21.521 -46.384 -50.842  1.00  0.00     0.011 C 
HETATM   16  C5  UNL     1     -21.357 -45.586 -49.676  1.00  0.00     0.007 C 
BRANCH  16  17
HETATM   17  C6  UNL     1     -22.419 -45.266 -48.908  1.00  0.00    -0.062 C 
HETATM   18  C7  UNL     1     -23.775 -45.185 -49.483  1.00  0.00     0.048 C 
HETATM   19  C8  UNL     1     -22.161 -45.109 -47.506  1.00  0.00     0.007 C 
BRANCH  19  20
HETATM   20  C9  UNL     1     -23.076 -44.755 -46.614  1.00  0.00     0.001 C 
HETATM   21  C10 UNL     1     -23.293 -43.360 -46.396  1.00  0.00     0.007 C 
BRANCH  21  22
HETATM   22  C11 UNL     1     -24.167 -42.759 -45.597  1.00  0.00    -0.062 C 
HETATM   23  C12 UNL     1     -23.778 -42.261 -44.269  1.00  0.00     0.048 C 
BRANCH  22  24
HETATM   24  C13 UNL     1     -25.480 -42.543 -46.180  1.00  0.00     0.007 C 
BRANCH  24  25
HETATM   25  C14 UNL     1     -26.533 -43.273 -46.198  1.00  0.00     0.001 C 
BRANCH  25  26
HETATM   26  C15 UNL     1     -27.663 -43.262 -45.341  1.00  0.00     0.013 C 
BRANCH  26  27
HETATM   27  C16 UNL     1     -27.440 -43.464 -44.009  1.00  0.00     0.015 C 
HETATM   28  C17 UNL     1     -27.044 -44.786 -43.559  1.00  0.00     0.055 C 
BRANCH  27  29
HETATM   29  C18 UNL     1     -27.620 -42.350 -43.121  1.00  0.00     0.204 C 
HETATM   30  O1  UNL     1     -26.819 -42.184 -42.141  1.00  0.00    -0.644 OA
HETATM   31  O2  UNL     1     -28.631 -41.451 -43.294  1.00  0.00    -0.644 OA
ENDBRANCH  27  29
ENDBRANCH  26  27
ENDBRANCH  25  26
ENDBRANCH  24  25
ENDBRANCH  22  24
ENDBRANCH  21  22
ENDBRANCH  19  20
ENDBRANCH  16  17
ENDBRANCH   3  15
BRANCH   4  32
HETATM   32  O3  UNL     1     -21.904 -46.651 -53.750  1.00  0.00    -0.385 OA
ATOM     33  H3  UNL     1     -21.509 -45.823 -53.995  1.00  0.00     0.211 HD
ENDBRANCH   4  32
BRANCH   7  34
HETATM   34  O4  UNL     1     -17.640 -47.937 -54.382  1.00  0.00    -0.309 OA
BRANCH  34  35
HETATM   35  C23 UNL     1     -16.694 -48.591 -53.685  1.00  0.00     0.255 C 
HETATM   36  C24 UNL     1     -16.955 -49.761 -52.792  1.00  0.00     0.126 C 
HETATM   37  O5  UNL     1     -15.513 -48.223 -53.765  1.00  0.00    -0.266 OA
ENDBRANCH  34  35
ENDBRANCH   7  34
BRANCH  10  38
HETATM   38  O6  UNL     1     -17.132 -43.296 -54.406  1.00  0.00    -0.316 OA
BRANCH  38  39
HETATM   39  C28 UNL     1     -16.845 -42.597 -55.571  1.00  0.00     0.255 C 
HETATM   40  C29 UNL     1     -15.557 -42.697 -56.269  1.00  0.00     0.126 C 
HETATM   41  O7  UNL     1     -17.744 -41.847 -56.034  1.00  0.00    -0.266 OA
ENDBRANCH  38  39
ENDBRANCH  10  38
TORSDOF 14
ENDMDL
MODEL 2
REMARK VINA RESULT: -8.099553955      0.935      1.018
REMARK  14 active torsions:
REMARK  status: ('A' for Active; 'I' for Inactive)
REMARK    1  A    between atoms: C3_3  and  C4_4 
REMARK    2  A    between atoms: C5_5  and  C6_6 
REMARK    3  A    between atoms: C8_8  and  C9_9 
REMARK    4  A    between atoms: C10_10  and  C11_11 
REMARK    5  A    between atoms: C11_11  and  C13_13 
REMARK    6  A    between atoms: C13_13  and  C14_14 
REMARK    7  A    between atoms: C14_14  and  C15_15 
REMARK    8  A    between atoms: C15_15  and  C16_16 
REMARK    9  A    between atoms: C16_16  and  C18_18 
REMARK   10  A    between atoms: C19_21  and  O3_23 
REMARK   11  A    between atoms: C22_26  and  O4_27 
REMARK   12  A    between atoms: O4_27  and  C23_28 
REMARK   13  A    between atoms: C27_33  and  O6_34 
REMARK   14  A    between atoms: O6_34  and  C28_35 
ROOT
HETATM    1  C1  UNL     1     -17.884 -46.655 -50.244  1.00  0.00     0.020 C 
HETATM    2  C2  UNL     1     -18.462 -46.406 -51.420  1.00  0.00    -0.050 C 
HETATM    3  C3  UNL     1     -19.865 -46.693 -51.625  1.00  0.00    -0.018 C 
HETATM    4  C19 UNL     1     -20.174 -47.371 -52.933  1.00  0.00     0.084 C 
HETATM    5  C20 UNL     1     -20.912 -48.654 -52.501  1.00  0.00     0.051 C 
HETATM    6  C21 UNL     1     -18.926 -47.797 -53.638  1.00  0.00     0.082 C 
HETATM    7  C22 UNL     1     -17.861 -46.766 -53.791  1.00  0.00     0.082 C 
HETATM    8  C25 UNL     1     -18.257 -45.984 -55.064  1.00  0.00     0.042 C 
HETATM    9  C26 UNL     1     -17.258 -44.845 -55.127  1.00  0.00     0.036 C 
HETATM   10  C27 UNL     1     -17.609 -43.832 -54.092  1.00  0.00     0.140 C 
HETATM   11  C30 UNL     1     -17.785 -44.433 -52.712  1.00  0.00    -0.010 C 
HETATM   12  C31 UNL     1     -16.651 -43.785 -51.877  1.00  0.00     0.018 C 
HETATM   13  C32 UNL     1     -19.016 -43.777 -52.113  1.00  0.00     0.018 C 
HETATM   14  C33 UNL     1     -17.676 -45.881 -52.595  1.00  0.00     0.064 C 
ENDROOT
BRANCH   3  15
HETATM   15  C4  UNL     1     -20.830 -46.428 -50.775  1.00  0.00     0.011 C 
HETATM   16  C5  UNL     1     -20.849 -45.525 -49.676  1.00  0.00     0.007 C 
BRANCH  16  17
HETATM   17  C6  UNL     1     -21.959 -45.384 -48.924  1.00  0.00    -0.062 C 
HETATM   18  C7  UNL     1     -23.302 -45.474 -49.528  1.00  0.00     0.048 C 
HETATM   19  C8  UNL     1     -21.753 -45.240 -47.512  1.00  0.00     0.007 C 
BRANCH  19  20
HETATM   20  C9  UNL     1     -22.725 -45.049 -46.631  1.00  0.00     0.001 C 
HETATM   21  C10 UNL     1     -23.021 -43.705 -46.243  1.00  0.00     0.007 C 
BRANCH  21  22
HETATM   22  C11 UNL     1     -23.959 -43.255 -45.419  1.00  0.00    -0.062 C 
HETATM   23  C12 UNL     1     -23.677 -42.199 -44.435  1.00  0.00     0.048 C 
BRANCH  22  24
HETATM   24  C13 UNL     1     -25.286 -43.805 -45.645  1.00  0.00     0.007 C 
BRANCH  24  25
HETATM   25  C14 UNL     1     -26.048 -44.519 -44.902  1.00  0.00     0.001 C 
BRANCH  25  26
HETATM   26  C15 UNL     1     -27.220 -44.161 -44.190  1.00  0.00     0.013 C 
BRANCH  26  27
HETATM   27  C16 UNL     1     -27.082 -43.260 -43.172  1.00  0.00     0.015 C 
HETATM   28  C17 UNL     1     -26.379 -43.664 -41.969  1.00  0.00     0.055 C 
BRANCH  27  29
HETATM   29  C18 UNL     1     -27.656 -41.955 -43.350  1.00  0.00     0.204 C 
HETATM   30  O1  UNL     1     -28.244 -41.383 -42.373  1.00  0.00    -0.644 OA
HETATM   31  O2  UNL     1     -27.590 -41.299 -44.544  1.00  0.00    -0.644 OA
ENDBRANCH  27  29
ENDBRANCH  26  27
ENDBRANCH  25  26
ENDBRANCH  24  25
ENDBRANCH  22  24
ENDBRANCH  21  22
ENDBRANCH  19  20
ENDBRANCH  16  17
ENDBRANCH   3  15
BRANCH   4  32
HETATM   32  O3  UNL     1     -21.082 -46.670 -53.701  1.00  0.00    -0.385 OA
ATOM     33  H3  UNL     1     -20.675 -46.204 -54.422  1.00  0.00     0.211 HD
ENDBRANCH   4  32
BRANCH   7  34
HETATM   34  O4  UNL     1     -16.672 -47.399 -54.208  1.00  0.00    -0.309 OA
BRANCH  34  35
HETATM   35  C23 UNL     1     -16.121 -48.565 -53.827  1.00  0.00     0.255 C 
HETATM   36  C24 UNL     1     -16.047 -49.787 -54.684  1.00  0.00     0.126 C 
HETATM   37  O5  UNL     1     -15.633 -48.667 -52.693  1.00  0.00    -0.266 OA
ENDBRANCH  34  35
ENDBRANCH   7  34
BRANCH  10  38
HETATM   38  O6  UNL     1     -16.749 -42.731 -54.121  1.00  0.00    -0.316 OA
BRANCH  38  39
HETATM   39  C28 UNL     1     -16.231 -42.196 -55.291  1.00  0.00     0.255 C 
HETATM   40  C29 UNL     1     -14.796 -42.176 -55.598  1.00  0.00     0.126 C 
HETATM   41  O7  UNL     1     -17.048 -41.708 -56.117  1.00  0.00    -0.266 OA
ENDBRANCH  38  39
ENDBRANCH  10  38
TORSDOF 14
ENDMDL
MODEL 3
REMARK VINA RESULT: -8.093019202      1.448      1.779
REMARK  14 active torsions:
REMARK  status: ('A' for Active; 'I' for Inactive)
REMARK    1  A    between atoms: C3_3  and  C4_4 
REMARK    2  A    between atoms: C5_5  and  C6_6 
REMARK    3  A    between atoms: C8_8  and  C9_9 
REMARK    4  A    between atoms: C10_10  and  C11_11 
REMARK    5  A    between atoms: C11_11  and  C13_13 
REMARK    6  A    between atoms: C13_13  and  C14_14 
REMARK    7  A    between atoms: C14_14  and  C15_15 
REMARK    8  A    between atoms: C15_15  and  C16_16 
REMARK    9  A    between atoms: C16_16  and  C18_18 
REMARK   10  A    between atoms: C19_21  and  O3_23 
REMARK   11  A    between atoms: C22_26  and  O4_27 
REMARK   12  A    between atoms: O4_27  and  C23_28 
REMARK   13  A    between atoms: C27_33  and  O6_34 
REMARK   14  A    between atoms: O6_34  and  C28_35 
ROOT
HETATM    1  C1  UNL     1     -18.652 -47.464 -50.249  1.00  0.00     0.020 C 
HETATM    2  C2  UNL     1     -18.870 -46.936 -51.455  1.00  0.00    -0.050 C 
HETATM    3  C3  UNL     1     -20.151 -47.095 -52.107  1.00  0.00    -0.018 C 
HETATM    4  C19 UNL     1     -20.064 -47.458 -53.565  1.00  0.00     0.084 C 
HETATM    5  C20 UNL     1     -20.881 -48.762 -53.656  1.00  0.00     0.051 C 
HETATM    6  C21 UNL     1     -18.662 -47.788 -53.965  1.00  0.00     0.082 C 
HETATM    7  C22 UNL     1     -17.608 -46.809 -53.577  1.00  0.00     0.082 C 
HETATM    8  C25 UNL     1     -17.629 -45.750 -54.703  1.00  0.00     0.042 C 
HETATM    9  C26 UNL     1     -16.667 -44.680 -54.226  1.00  0.00     0.036 C 
HETATM   10  C27 UNL     1     -17.311 -43.896 -53.134  1.00  0.00     0.140 C 
HETATM   11  C30 UNL     1     -17.870 -44.771 -52.030  1.00  0.00    -0.010 C 
HETATM   12  C31 UNL     1     -17.032 -44.380 -50.787  1.00  0.00     0.018 C 
HETATM   13  C32 UNL     1     -19.229 -44.193 -51.674  1.00  0.00     0.018 C 
HETATM   14  C33 UNL     1     -17.784 -46.213 -52.212  1.00  0.00     0.064 C 
ENDROOT
BRANCH   3  15
HETATM   15  C4  UNL     1     -21.322 -46.968 -51.527  1.00  0.00     0.011 C 
HETATM   16  C5  UNL     1     -21.727 -46.099 -50.477  1.00  0.00     0.007 C 
BRANCH  16  17
HETATM   17  C6  UNL     1     -22.998 -46.110 -50.027  1.00  0.00    -0.062 C 
HETATM   18  C7  UNL     1     -23.971 -47.099 -50.528  1.00  0.00     0.048 C 
HETATM   19  C8  UNL     1     -23.307 -45.178 -48.983  1.00  0.00     0.007 C 
BRANCH  19  20
HETATM   20  C9  UNL     1     -24.514 -45.023 -48.454  1.00  0.00     0.001 C 
HETATM   21  C10 UNL     1     -24.655 -45.216 -47.045  1.00  0.00     0.007 C 
BRANCH  21  22
HETATM   22  C11 UNL     1     -25.734 -45.084 -46.282  1.00  0.00    -0.062 C 
HETATM   23  C12 UNL     1     -26.094 -46.096 -45.278  1.00  0.00     0.048 C 
BRANCH  22  24
HETATM   24  C13 UNL     1     -26.447 -43.828 -46.445  1.00  0.00     0.007 C 
BRANCH  24  25
HETATM   25  C14 UNL     1     -26.490 -42.774 -45.717  1.00  0.00     0.001 C 
BRANCH  25  26
HETATM   26  C15 UNL     1     -26.080 -42.577 -44.375  1.00  0.00     0.013 C 
BRANCH  26  27
HETATM   27  C16 UNL     1     -26.929 -43.003 -43.392  1.00  0.00     0.015 C 
HETATM   28  C17 UNL     1     -26.402 -43.830 -42.323  1.00  0.00     0.055 C 
BRANCH  27  29
HETATM   29  C18 UNL     1     -28.308 -42.611 -43.481  1.00  0.00     0.204 C 
HETATM   30  O1  UNL     1     -28.626 -41.380 -43.367  1.00  0.00    -0.644 OA
HETATM   31  O2  UNL     1     -29.301 -43.523 -43.688  1.00  0.00    -0.644 OA
ENDBRANCH  27  29
ENDBRANCH  26  27
ENDBRANCH  25  26
ENDBRANCH  24  25
ENDBRANCH  22  24
ENDBRANCH  21  22
ENDBRANCH  19  20
ENDBRANCH  16  17
ENDBRANCH   3  15
BRANCH   4  32
HETATM   32  O3  UNL     1     -20.720 -46.559 -54.382  1.00  0.00    -0.385 OA
ATOM     33  H3  UNL     1     -20.147 -46.159 -55.026  1.00  0.00     0.211 HD
ENDBRANCH   4  32
BRANCH   7  34
HETATM   34  O4  UNL     1     -16.343 -47.400 -53.771  1.00  0.00    -0.309 OA
BRANCH  34  35
HETATM   35  C23 UNL     1     -15.921 -48.656 -53.545  1.00  0.00     0.255 C 
HETATM   36  C24 UNL     1     -15.916 -49.322 -52.207  1.00  0.00     0.126 C 
HETATM   37  O5  UNL     1     -15.499 -49.337 -54.491  1.00  0.00    -0.266 OA
ENDBRANCH  34  35
ENDBRANCH   7  34
BRANCH  10  38
HETATM   38  O6  UNL     1     -16.490 -42.864 -52.674  1.00  0.00    -0.316 OA
BRANCH  38  39
HETATM   39  C28 UNL     1     -16.136 -41.767 -53.446  1.00  0.00     0.255 C 
HETATM   40  C29 UNL     1     -14.751 -41.472 -53.834  1.00  0.00     0.126 C 
HETATM   41  O7  UNL     1     -17.061 -40.998 -53.821  1.00  0.00    -0.266 OA
ENDBRANCH  38  39
ENDBRANCH  10  38
TORSDOF 14
ENDMDL
MODEL 4
REMARK VINA RESULT: -8.075452701      1.121      1.505
REMARK  14 active torsions:
REMARK  status: ('A' for Active; 'I' for Inactive)
REMARK    1  A    between atoms: C3_3  and  C4_4 
REMARK    2  A    between atoms: C5_5  and  C6_6 
REMARK    3  A    between atoms: C8_8  and  C9_9 
REMARK    4  A    between atoms: C10_10  and  C11_11 
REMARK    5  A    between atoms: C11_11  and  C13_13 
REMARK    6  A    between atoms: C13_13  and  C14_14 
REMARK    7  A    between atoms: C14_14  and  C15_15 
REMARK    8  A    between atoms: C15_15  and  C16_16 
REMARK    9  A    between atoms: C16_16  and  C18_18 
REMARK   10  A    between atoms: C19_21  and  O3_23 
REMARK   11  A    between atoms: C22_26  and  O4_27 
REMARK   12  A    between atoms: O4_27  and  C23_28 
REMARK   13  A    between atoms: C27_33  and  O6_34 
REMARK   14  A    between atoms: O6_34  and  C28_35 
ROOT
HETATM    1  C1  UNL     1     -17.785 -47.527 -50.341  1.00  0.00     0.020 C 
HETATM    2  C2  UNL     1     -18.637 -47.134 -51.289  1.00  0.00    -0.050 C 
HETATM    3  C3  UNL     1     -20.062 -47.134 -51.043  1.00  0.00    -0.018 C 
HETATM    4  C19 UNL     1     -20.885 -47.697 -52.171  1.00  0.00     0.084 C 
HETATM    5  C20 UNL     1     -21.690 -48.823 -51.493  1.00  0.00     0.051 C 
HETATM    6  C21 UNL     1     -20.024 -48.336 -53.212  1.00  0.00     0.082 C 
HETATM    7  C22 UNL     1     -18.878 -47.530 -53.718  1.00  0.00     0.082 C 
HETATM    8  C25 UNL     1     -19.485 -46.645 -54.830  1.00  0.00     0.042 C 
HETATM    9  C26 UNL     1     -18.352 -45.723 -55.233  1.00  0.00     0.036 C 
HETATM   10  C27 UNL     1     -18.161 -44.693 -54.172  1.00  0.00     0.140 C 
HETATM   11  C30 UNL     1     -18.018 -45.292 -52.787  1.00  0.00    -0.010 C 
HETATM   12  C31 UNL     1     -16.578 -44.904 -52.362  1.00  0.00     0.018 C 
HETATM   13  C32 UNL     1     -18.851 -44.426 -51.858  1.00  0.00     0.018 C 
HETATM   14  C33 UNL     1     -18.163 -46.736 -52.665  1.00  0.00     0.064 C 
ENDROOT
BRANCH   3  15
HETATM   15  C4  UNL     1     -20.646 -46.712 -49.946  1.00  0.00     0.011 C 
HETATM   16  C5  UNL     1     -21.493 -45.587 -49.742  1.00  0.00     0.007 C 
BRANCH  16  17
HETATM   17  C6  UNL     1     -22.014 -45.332 -48.525  1.00  0.00    -0.062 C 
HETATM   18  C7  UNL     1     -21.140 -45.104 -47.358  1.00  0.00     0.048 C 
HETATM   19  C8  UNL     1     -23.440 -45.203 -48.462  1.00  0.00     0.007 C 
BRANCH  19  20
HETATM   20  C9  UNL     1     -24.122 -44.996 -47.344  1.00  0.00     0.001 C 
HETATM   21  C10 UNL     1     -24.448 -43.647 -47.000  1.00  0.00     0.007 C 
BRANCH  21  22
HETATM   22  C11 UNL     1     -25.146 -43.187 -45.968  1.00  0.00    -0.062 C 
HETATM   23  C12 UNL     1     -24.500 -42.457 -44.868  1.00  0.00     0.048 C 
BRANCH  22  24
HETATM   24  C13 UNL     1     -26.584 -43.366 -46.076  1.00  0.00     0.007 C 
BRANCH  24  25
HETATM   25  C14 UNL     1     -27.523 -43.244 -45.212  1.00  0.00     0.001 C 
BRANCH  25  26
HETATM   26  C15 UNL     1     -27.715 -43.912 -43.977  1.00  0.00     0.013 C 
BRANCH  26  27
HETATM   27  C16 UNL     1     -27.707 -43.147 -42.844  1.00  0.00     0.015 C 
HETATM   28  C17 UNL     1     -27.686 -41.702 -42.976  1.00  0.00     0.055 C 
BRANCH  27  29
HETATM   29  C18 UNL     1     -27.710 -43.824 -41.578  1.00  0.00     0.204 C 
HETATM   30  O1  UNL     1     -28.741 -43.758 -40.826  1.00  0.00    -0.644 OA
HETATM   31  O2  UNL     1     -26.636 -44.545 -41.147  1.00  0.00    -0.644 OA
ENDBRANCH  27  29
ENDBRANCH  26  27
ENDBRANCH  25  26
ENDBRANCH  24  25
ENDBRANCH  22  24
ENDBRANCH  21  22
ENDBRANCH  19  20
ENDBRANCH  16  17
ENDBRANCH   3  15
BRANCH   4  32
HETATM   32  O3  UNL     1     -21.830 -46.808 -52.642  1.00  0.00    -0.385 OA
ATOM     33  H3  UNL     1     -22.490 -47.222 -53.186  1.00  0.00     0.211 HD
ENDBRANCH   4  32
BRANCH   7  34
HETATM   34  O4  UNL     1     -18.023 -48.369 -54.461  1.00  0.00    -0.309 OA
BRANCH  34  35
HETATM   35  C23 UNL     1     -16.978 -49.120 -54.071  1.00  0.00     0.255 C 
HETATM   36  C24 UNL     1     -17.083 -50.524 -53.568  1.00  0.00     0.126 C 
HETATM   37  O5  UNL     1     -15.834 -48.645 -54.117  1.00  0.00    -0.266 OA
ENDBRANCH  34  35
ENDBRANCH   7  34
BRANCH  10  38
HETATM   38  O6  UNL     1     -17.153 -43.782 -54.498  1.00  0.00    -0.316 OA
BRANCH  38  39
HETATM   39  C28 UNL     1     -17.401 -42.540 -55.065  1.00  0.00     0.255 C 
HETATM   40  C29 UNL     1     -17.669 -42.350 -56.496  1.00  0.00     0.126 C 
HETATM   41  O7  UNL     1     -17.389 -41.539 -54.300  1.00  0.00    -0.266 OA
ENDBRANCH  38  39
ENDBRANCH  10  38
TORSDOF 14
ENDMDL
MODEL 5
REMARK VINA RESULT: -8.041665357      1.392      2.091
REMARK  14 active torsions:
REMARK  status: ('A' for Active; 'I' for Inactive)
REMARK    1  A    between atoms: C3_3  and  C4_4 
REMARK    2  A    between atoms: C5_5  and  C6_6 
REMARK    3  A    between atoms: C8_8  and  C9_9 
REMARK    4  A    between atoms: C10_10  and  C11_11 
REMARK    5  A    between atoms: C11_11  and  C13_13 
REMARK    6  A    between atoms: C13_13  and  C14_14 
REMARK    7  A    between atoms: C14_14  and  C15_15 
REMARK    8  A    between atoms: C15_15  and  C16_16 
REMARK    9  A    between atoms: C16_16  and  C18_18 
REMARK   10  A    between atoms: C19_21  and  O3_23 
REMARK   11  A    between atoms: C22_26  and  O4_27 
REMARK   12  A    between atoms: O4_27  and  C23_28 
REMARK   13  A    between atoms: C27_33  and  O6_34 
REMARK   14  A    between atoms: O6_34  and  C28_35 
ROOT
HETATM    1  C1  UNL     1     -17.696 -47.076 -50.383  1.00  0.00     0.020 C 
HETATM    2  C2  UNL     1     -18.440 -46.748 -51.440  1.00  0.00    -0.050 C 
HETATM    3  C3  UNL     1     -19.873 -46.936 -51.418  1.00  0.00    -0.018 C 
HETATM    4  C19 UNL     1     -20.438 -47.545 -52.674  1.00  0.00     0.084 C 
HETATM    5  C20 UNL     1     -21.183 -48.793 -52.160  1.00  0.00     0.051 C 
HETATM    6  C21 UNL     1     -19.354 -48.023 -53.586  1.00  0.00     0.082 C 
HETATM    7  C22 UNL     1     -18.259 -47.059 -53.886  1.00  0.00     0.082 C 
HETATM    8  C25 UNL     1     -18.802 -46.206 -55.056  1.00  0.00     0.042 C 
HETATM    9  C26 UNL     1     -17.751 -45.132 -55.253  1.00  0.00     0.036 C 
HETATM   10  C27 UNL     1     -17.857 -44.137 -54.149  1.00  0.00     0.140 C 
HETATM   11  C30 UNL     1     -17.847 -44.777 -52.775  1.00  0.00    -0.010 C 
HETATM   12  C31 UNL     1     -16.550 -44.233 -52.122  1.00  0.00     0.018 C 
HETATM   13  C32 UNL     1     -18.915 -44.065 -51.964  1.00  0.00     0.018 C 
HETATM   14  C33 UNL     1     -17.820 -46.231 -52.715  1.00  0.00     0.064 C 
ENDROOT
BRANCH   3  15
HETATM   15  C4  UNL     1     -20.666 -46.642 -50.414  1.00  0.00     0.011 C 
HETATM   16  C5  UNL     1     -20.737 -45.456 -49.631  1.00  0.00     0.007 C 
BRANCH  16  17
HETATM   17  C6  UNL     1     -21.645 -45.342 -48.641  1.00  0.00    -0.062 C 
HETATM   18  C7  UNL     1     -21.225 -45.076 -47.252  1.00  0.00     0.048 C 
HETATM   19  C8  UNL     1     -23.022 -45.399 -49.036  1.00  0.00     0.007 C 
BRANCH  19  20
HETATM   20  C9  UNL     1     -24.044 -45.346 -48.191  1.00  0.00     0.001 C 
HETATM   21  C10 UNL     1     -24.596 -46.581 -47.731  1.00  0.00     0.007 C 
BRANCH  21  22
HETATM   22  C11 UNL     1     -25.581 -46.792 -46.867  1.00  0.00    -0.062 C 
HETATM   23  C12 UNL     1     -26.522 -47.910 -47.031  1.00  0.00     0.048 C 
BRANCH  22  24
HETATM   24  C13 UNL     1     -25.580 -45.910 -45.712  1.00  0.00     0.007 C 
BRANCH  24  25
HETATM   25  C14 UNL     1     -26.398 -44.997 -45.339  1.00  0.00     0.001 C 
BRANCH  25  26
HETATM   26  C15 UNL     1     -26.771 -43.790 -45.982  1.00  0.00     0.013 C 
BRANCH  26  27
HETATM   27  C16 UNL     1     -26.085 -42.660 -45.640  1.00  0.00     0.015 C 
HETATM   28  C17 UNL     1     -24.911 -42.293 -46.410  1.00  0.00     0.055 C 
BRANCH  27  29
HETATM   29  C18 UNL     1     -26.563 -41.899 -44.520  1.00  0.00     0.204 C 
HETATM   30  O1  UNL     1     -27.754 -41.437 -44.530  1.00  0.00    -0.644 OA
HETATM   31  O2  UNL     1     -25.778 -41.650 -43.433  1.00  0.00    -0.644 OA
ENDBRANCH  27  29
ENDBRANCH  26  27
ENDBRANCH  25  26
ENDBRANCH  24  25
ENDBRANCH  22  24
ENDBRANCH  21  22
ENDBRANCH  19  20
ENDBRANCH  16  17
ENDBRANCH   3  15
BRANCH   4  32
HETATM   32  O3  UNL     1     -21.408 -46.759 -53.263  1.00  0.00    -0.385 OA
ATOM     33  H3  UNL     1     -21.960 -47.242 -53.867  1.00  0.00     0.211 HD
ENDBRANCH   4  32
BRANCH   7  34
HETATM   34  O4  UNL     1     -17.201 -47.751 -54.511  1.00  0.00    -0.309 OA
BRANCH  34  35
HETATM   35  C23 UNL     1     -16.567 -48.882 -54.157  1.00  0.00     0.255 C 
HETATM   36  C24 UNL     1     -15.727 -49.036 -52.930  1.00  0.00     0.126 C 
HETATM   37  O5  UNL     1     -16.664 -49.886 -54.876  1.00  0.00    -0.266 OA
ENDBRANCH  34  35
ENDBRANCH   7  34
BRANCH  10  38
HETATM   38  O6  UNL     1     -16.938 -43.094 -54.291  1.00  0.00    -0.316 OA
BRANCH  38  39
HETATM   39  C28 UNL     1     -16.721 -42.425 -55.487  1.00  0.00     0.255 C 
HETATM   40  C29 UNL     1     -15.433 -42.439 -56.191  1.00  0.00     0.126 C 
HETATM   41  O7  UNL     1     -17.686 -41.779 -55.975  1.00  0.00    -0.266 OA
ENDBRANCH  38  39
ENDBRANCH  10  38
TORSDOF 14
ENDMDL
