MODEL 1
REMARK VINA RESULT: -7.981852101      0.000      0.000
REMARK  6 active torsions:
REMARK  status: ('A' for Active; 'I' for Inactive)
REMARK    1  A    between atoms: O1_2  and  C2_3 
REMARK    2  A    between atoms: C2_3  and  C3_5 
REMARK    3  A    between atoms: C7_9  and  O3_10 
REMARK    4  A    between atoms: O3_10  and  C8_11 
REMARK    5  A    between atoms: C23_28  and  O5_30 
REMARK    6  A    between atoms: C29_36  and  O6_37 
ROOT
HETATM    1  C3  UNL     1       6.096  -1.151 104.113  1.00  0.00     0.074 C 
HETATM    2  C4  UNL     1       7.131  -0.147 103.706  1.00  0.00    -0.002 C 
HETATM    3  C5  UNL     1       6.670   0.526 102.632  1.00  0.00    -0.067 C 
HETATM    4  C6  UNL     1       5.342  -0.001 102.305  1.00  0.00     0.050 C 
HETATM    5  C7  UNL     1       4.531   1.005 101.610  1.00  0.00     0.141 C 
HETATM    6  C10 UNL     1       5.320   1.353 100.331  1.00  0.00     0.044 C 
HETATM    7  C11 UNL     1       6.489   2.174 100.744  1.00  0.00    -0.019 C 
HETATM    8  C12 UNL     1       5.849   3.422 101.396  1.00  0.00     0.017 C 
HETATM    9  C13 UNL     1       7.319   1.586 101.855  1.00  0.00     0.047 C 
HETATM   10  C14 UNL     1       8.526   1.060 101.153  1.00  0.00    -0.009 C 
HETATM   11  C15 UNL     1       8.576   1.575  99.961  1.00  0.00    -0.051 C 
HETATM   12  C16 UNL     1       9.379   1.577  98.728  1.00  0.00     0.014 C 
HETATM   13  C17 UNL     1       8.569   1.955  97.711  1.00  0.00    -0.040 C 
HETATM   14  C18 UNL     1       7.219   2.218  98.256  1.00  0.00     0.036 C 
HETATM   15  C19 UNL     1       6.534   3.244  97.439  1.00  0.00     0.005 C 
HETATM   16  C20 UNL     1       5.216   2.683  96.835  1.00  0.00     0.012 C 
HETATM   17  C21 UNL     1       7.278   3.766  96.237  1.00  0.00     0.065 C 
HETATM   18 BR1  UNL     1       8.477   5.205  96.572  1.00  0.00    -0.091 Br
HETATM   19  C22 UNL     1       7.903   2.648  95.448  1.00  0.00     0.058 C 
HETATM   20  C23 UNL     1       8.968   2.050  96.277  1.00  0.00     0.079 C 
HETATM   21  C24 UNL     1      10.278   2.808  96.160  1.00  0.00     0.051 C 
HETATM   22  C25 UNL     1       7.455   2.539  99.688  1.00  0.00    -0.001 C 
HETATM   23  C26 UNL     1       8.066   3.873  99.928  1.00  0.00     0.022 C 
HETATM   24  C27 UNL     1       4.841  -0.403 103.685  1.00  0.00     0.021 C 
HETATM   25  C28 UNL     1       4.587   0.816 104.534  1.00  0.00     0.038 C 
HETATM   26  C29 UNL     1       5.035   0.625 105.946  1.00  0.00     0.119 C 
HETATM   27  C30 UNL     1       5.090  -0.831 106.341  1.00  0.00     0.037 C 
HETATM   28  C31 UNL     1       6.161  -1.495 105.554  1.00  0.00     0.006 C 
HETATM   29  C32 UNL     1       7.543  -1.263 106.147  1.00  0.00     0.011 C 
ENDROOT
BRANCH   1  30
HETATM   30  C2  UNL     1       6.188  -2.372 103.245  1.00  0.00     0.271 C 
HETATM   31  O2  UNL     1       5.181  -3.078 103.038  1.00  0.00    -0.264 OA
BRANCH  30  32
HETATM   32  O1  UNL     1       7.422  -2.666 102.693  1.00  0.00    -0.326 OA
HETATM   33  C1  UNL     1       7.518  -3.020 101.328  1.00  0.00     0.213 C 
ENDBRANCH  30  32
ENDBRANCH   1  30
BRANCH   5  34
HETATM   34  O3  UNL     1       3.219   0.615 101.300  1.00  0.00    -0.316 OA
BRANCH  34  35
HETATM   35  C8  UNL     1       2.237   1.405 100.759  1.00  0.00     0.255 C 
HETATM   36  C9  UNL     1       1.990   2.743 101.345  1.00  0.00     0.126 C 
HETATM   37  O4  UNL     1       1.610   0.931  99.794  1.00  0.00    -0.266 OA
ENDBRANCH  34  35
ENDBRANCH   5  34
BRANCH  26  38
HETATM   38  O6  UNL     1       4.242   1.288 106.869  1.00  0.00    -0.396 OA
ATOM     39  H6  UNL     1       3.343   1.398 106.581  1.00  0.00     0.210 HD
ENDBRANCH  26  38
BRANCH  20  40
HETATM   40  O5  UNL     1       9.200   0.756  95.751  1.00  0.00    -0.386 OA
ATOM     41  H5  UNL     1       8.621   0.595  95.015  1.00  0.00     0.211 HD
ENDBRANCH  20  40
TORSDOF 6
ENDMDL
MODEL 2
REMARK VINA RESULT: -7.229917843      2.815      5.870
REMARK  6 active torsions:
REMARK  status: ('A' for Active; 'I' for Inactive)
REMARK    1  A    between atoms: O1_2  and  C2_3 
REMARK    2  A    between atoms: C2_3  and  C3_5 
REMARK    3  A    between atoms: C7_9  and  O3_10 
REMARK    4  A    between atoms: O3_10  and  C8_11 
REMARK    5  A    between atoms: C23_28  and  O5_30 
REMARK    6  A    between atoms: C29_36  and  O6_37 
ROOT
HETATM    1  C3  UNL     1       0.136   2.647 103.248  1.00  0.00     0.074 C 
HETATM    2  C4  UNL     1       0.708   1.878 102.096  1.00  0.00    -0.002 C 
HETATM    3  C5  UNL     1       2.050   1.868 102.217  1.00  0.00    -0.067 C 
HETATM    4  C6  UNL     1       2.401   2.613 103.428  1.00  0.00     0.050 C 
HETATM    5  C7  UNL     1       3.686   2.162 103.974  1.00  0.00     0.141 C 
HETATM    6  C10 UNL     1       4.716   2.413 102.852  1.00  0.00     0.044 C 
HETATM    7  C11 UNL     1       4.482   1.386 101.802  1.00  0.00    -0.019 C 
HETATM    8  C12 UNL     1       4.730   0.048 102.536  1.00  0.00     0.017 C 
HETATM    9  C13 UNL     1       3.055   1.269 101.333  1.00  0.00     0.047 C 
HETATM   10  C14 UNL     1       3.063   1.952 100.006  1.00  0.00    -0.009 C 
HETATM   11  C15 UNL     1       4.294   2.087  99.611  1.00  0.00    -0.051 C 
HETATM   12  C16 UNL     1       5.108   2.614  98.504  1.00  0.00     0.014 C 
HETATM   13  C17 UNL     1       6.347   2.865  98.990  1.00  0.00    -0.040 C 
HETATM   14  C18 UNL     1       6.375   2.500 100.423  1.00  0.00     0.036 C 
HETATM   15  C19 UNL     1       7.739   2.081 100.812  1.00  0.00     0.005 C 
HETATM   16  C20 UNL     1       8.299   2.990 101.941  1.00  0.00     0.012 C 
HETATM   17  C21 UNL     1       8.803   2.147  99.747  1.00  0.00     0.065 C 
HETATM   18 BR1  UNL     1       8.934   0.621  98.619  1.00  0.00    -0.091 Br
HETATM   19  C22 UNL     1       8.737   3.442  98.984  1.00  0.00     0.058 C 
HETATM   20  C23 UNL     1       7.479   3.449  98.213  1.00  0.00     0.079 C 
HETATM   21  C24 UNL     1       7.617   2.724  96.887  1.00  0.00     0.051 C 
HETATM   22  C25 UNL     1       5.289   1.496 100.570  1.00  0.00    -0.001 C 
HETATM   23  C26 UNL     1       5.598   0.164  99.986  1.00  0.00     0.022 C 
HETATM   24  C27 UNL     1       1.188   2.331 104.303  1.00  0.00     0.021 C 
HETATM   25  C28 UNL     1       1.158   0.884 104.721  1.00  0.00     0.038 C 
HETATM   26  C29 UNL     1      -0.221   0.312 104.682  1.00  0.00     0.119 C 
HETATM   27  C30 UNL     1      -1.289   1.372 104.804  1.00  0.00     0.037 C 
HETATM   28  C31 UNL     1      -1.244   2.230 103.592  1.00  0.00     0.006 C 
HETATM   29  C32 UNL     1      -1.975   1.603 102.414  1.00  0.00     0.011 C 
ENDROOT
BRANCH   1  30
HETATM   30  C2  UNL     1       0.223   4.121 102.980  1.00  0.00     0.271 C 
HETATM   31  O2  UNL     1       0.324   4.930 103.925  1.00  0.00    -0.264 OA
BRANCH  30  32
HETATM   32  O1  UNL     1       0.188   4.529 101.659  1.00  0.00    -0.326 OA
HETATM   33  C1  UNL     1      -0.983   5.121 101.134  1.00  0.00     0.213 C 
ENDBRANCH  30  32
ENDBRANCH   1  30
BRANCH   5  34
HETATM   34  O3  UNL     1       4.087   2.779 105.168  1.00  0.00    -0.316 OA
BRANCH  34  35
HETATM   35  C8  UNL     1       4.402   2.153 106.347  1.00  0.00     0.255 C 
HETATM   36  C9  UNL     1       4.660   0.695 106.338  1.00  0.00     0.126 C 
HETATM   37  O4  UNL     1       4.448   2.871 107.364  1.00  0.00    -0.266 OA
ENDBRANCH  34  35
ENDBRANCH   5  34
BRANCH  26  38
HETATM   38  O6  UNL     1      -0.450  -0.639 105.665  1.00  0.00    -0.396 OA
ATOM     39  H6  UNL     1       0.332  -1.119 105.912  1.00  0.00     0.210 HD
ENDBRANCH  26  38
BRANCH  20  40
HETATM   40  O5  UNL     1       7.209   4.805  97.907  1.00  0.00    -0.386 OA
ATOM     41  H5  UNL     1       6.664   5.190  98.585  1.00  0.00     0.211 HD
ENDBRANCH  20  40
TORSDOF 6
ENDMDL
MODEL 3
REMARK VINA RESULT: -7.084492119      2.676      5.850
REMARK  6 active torsions:
REMARK  status: ('A' for Active; 'I' for Inactive)
REMARK    1  A    between atoms: O1_2  and  C2_3 
REMARK    2  A    between atoms: C2_3  and  C3_5 
REMARK    3  A    between atoms: C7_9  and  O3_10 
REMARK    4  A    between atoms: O3_10  and  C8_11 
REMARK    5  A    between atoms: C23_28  and  O5_30 
REMARK    6  A    between atoms: C29_36  and  O6_37 
ROOT
HETATM    1  C3  UNL     1       0.240   2.904 102.310  1.00  0.00     0.074 C 
HETATM    2  C4  UNL     1       0.855   2.125 101.187  1.00  0.00    -0.002 C 
HETATM    3  C5  UNL     1       2.185   2.058 101.395  1.00  0.00    -0.067 C 
HETATM    4  C6  UNL     1       2.485   2.776 102.636  1.00  0.00     0.050 C 
HETATM    5  C7  UNL     1       3.713   2.268 103.258  1.00  0.00     0.141 C 
HETATM    6  C10 UNL     1       4.823   2.489 102.209  1.00  0.00     0.044 C 
HETATM    7  C11 UNL     1       4.617   1.483 101.133  1.00  0.00    -0.019 C 
HETATM    8  C12 UNL     1       4.763   0.128 101.863  1.00  0.00     0.017 C 
HETATM    9  C13 UNL     1       3.221   1.429 100.570  1.00  0.00     0.047 C 
HETATM   10  C14 UNL     1       3.343   2.125  99.256  1.00  0.00    -0.009 C 
HETATM   11  C15 UNL     1       4.601   2.214  98.943  1.00  0.00    -0.051 C 
HETATM   12  C16 UNL     1       5.506   2.720  97.899  1.00  0.00     0.014 C 
HETATM   13  C17 UNL     1       6.720   2.915  98.467  1.00  0.00    -0.040 C 
HETATM   14  C18 UNL     1       6.640   2.534  99.894  1.00  0.00     0.036 C 
HETATM   15  C19 UNL     1       7.958   2.055 100.365  1.00  0.00     0.005 C 
HETATM   16  C20 UNL     1       8.478   2.930 101.540  1.00  0.00     0.012 C 
HETATM   17  C21 UNL     1       9.091   2.090  99.372  1.00  0.00     0.065 C 
HETATM   18 BR1  UNL     1       9.234   0.571  98.234  1.00  0.00    -0.091 Br
HETATM   19  C22 UNL     1       9.126   3.394  98.623  1.00  0.00     0.058 C 
HETATM   20  C23 UNL     1       7.922   3.461  97.773  1.00  0.00     0.079 C 
HETATM   21  C24 UNL     1       8.117   2.744  96.449  1.00  0.00     0.051 C 
HETATM   22  C25 UNL     1       5.507   1.573  99.957  1.00  0.00    -0.001 C 
HETATM   23  C26 UNL     1       5.801   0.236  99.376  1.00  0.00     0.022 C 
HETATM   24  C27 UNL     1       1.207   2.535 103.427  1.00  0.00     0.021 C 
HETATM   25  C28 UNL     1       1.093   1.085 103.823  1.00  0.00     0.038 C 
HETATM   26  C29 UNL     1      -0.303   0.570 103.687  1.00  0.00     0.119 C 
HETATM   27  C30 UNL     1      -1.333   1.671 103.753  1.00  0.00     0.037 C 
HETATM   28  C31 UNL     1      -1.175   2.540 102.559  1.00  0.00     0.006 C 
HETATM   29  C32 UNL     1      -1.852   1.956 101.327  1.00  0.00     0.011 C 
ENDROOT
BRANCH   1  30
HETATM   30  C2  UNL     1       0.403   4.376 102.068  1.00  0.00     0.271 C 
HETATM   31  O2  UNL     1       0.322   4.839 100.912  1.00  0.00    -0.264 OA
BRANCH  30  32
HETATM   32  O1  UNL     1       0.640   5.178 103.170  1.00  0.00    -0.326 OA
HETATM   33  C1  UNL     1      -0.311   6.152 103.550  1.00  0.00     0.213 C 
ENDBRANCH  30  32
ENDBRANCH   1  30
BRANCH   5  34
HETATM   34  O3  UNL     1       4.059   2.855 104.484  1.00  0.00    -0.316 OA
BRANCH  34  35
HETATM   35  C8  UNL     1       4.466   2.201 105.619  1.00  0.00     0.255 C 
HETATM   36  C9  UNL     1       4.830   0.768 105.530  1.00  0.00     0.126 C 
HETATM   37  O4  UNL     1       4.500   2.874 106.667  1.00  0.00    -0.266 OA
ENDBRANCH  34  35
ENDBRANCH   5  34
BRANCH  26  38
HETATM   38  O6  UNL     1      -0.633  -0.381 104.640  1.00  0.00    -0.396 OA
ATOM     39  H6  UNL     1      -1.536  -0.668 104.588  1.00  0.00     0.210 HD
ENDBRANCH  26  38
BRANCH  20  40
HETATM   40  O5  UNL     1       7.727   4.830  97.468  1.00  0.00    -0.386 OA
ATOM     41  H5  UNL     1       8.552   5.227  97.214  1.00  0.00     0.211 HD
ENDBRANCH  20  40
TORSDOF 6
ENDMDL
MODEL 4
REMARK VINA RESULT: -6.587454367      3.161      7.663
REMARK  6 active torsions:
REMARK  status: ('A' for Active; 'I' for Inactive)
REMARK    1  A    between atoms: O1_2  and  C2_3 
REMARK    2  A    between atoms: C2_3  and  C3_5 
REMARK    3  A    between atoms: C7_9  and  O3_10 
REMARK    4  A    between atoms: O3_10  and  C8_11 
REMARK    5  A    between atoms: C23_28  and  O5_30 
REMARK    6  A    between atoms: C29_36  and  O6_37 
ROOT
HETATM    1  C3  UNL     1       7.996   2.686  99.445  1.00  0.00     0.074 C 
HETATM    2  C4  UNL     1       8.038   1.216  99.736  1.00  0.00    -0.002 C 
HETATM    3  C5  UNL     1       6.834   0.844 100.217  1.00  0.00    -0.067 C 
HETATM    4  C6  UNL     1       5.977   2.032 100.257  1.00  0.00     0.050 C 
HETATM    5  C7  UNL     1       4.560   1.665 100.163  1.00  0.00     0.141 C 
HETATM    6  C10 UNL     1       4.294   0.748 101.376  1.00  0.00     0.044 C 
HETATM    7  C11 UNL     1       4.941  -0.560 101.089  1.00  0.00    -0.019 C 
HETATM    8  C12 UNL     1       4.222  -1.054  99.813  1.00  0.00     0.017 C 
HETATM    9  C13 UNL     1       6.386  -0.476 100.667  1.00  0.00     0.047 C 
HETATM   10  C14 UNL     1       7.135  -0.900 101.886  1.00  0.00    -0.009 C 
HETATM   11  C15 UNL     1       6.309  -1.479 102.706  1.00  0.00    -0.051 C 
HETATM   12  C16 UNL     1       6.244  -2.129 104.025  1.00  0.00     0.014 C 
HETATM   13  C17 UNL     1       4.964  -2.049 104.459  1.00  0.00    -0.040 C 
HETATM   14  C18 UNL     1       4.159  -1.353 103.431  1.00  0.00     0.036 C 
HETATM   15  C19 UNL     1       2.759  -1.830 103.476  1.00  0.00     0.005 C 
HETATM   16  C20 UNL     1       1.783  -0.656 103.768  1.00  0.00     0.012 C 
HETATM   17  C21 UNL     1       2.418  -2.844 104.537  1.00  0.00     0.065 C 
HETATM   18 BR1  UNL     1       2.749  -4.660 104.076  1.00  0.00    -0.091 Br
HETATM   19  C22 UNL     1       2.994  -2.459 105.872  1.00  0.00     0.058 C 
HETATM   20  C23 UNL     1       4.464  -2.548 105.773  1.00  0.00     0.079 C 
HETATM   21  C24 UNL     1       4.969  -3.959 106.011  1.00  0.00     0.051 C 
HETATM   22  C25 UNL     1       4.908  -1.570 102.166  1.00  0.00    -0.001 C 
HETATM   23  C26 UNL     1       4.824  -2.955 101.629  1.00  0.00     0.022 C 
HETATM   24  C27 UNL     1       6.524   2.825  99.079  1.00  0.00     0.021 C 
HETATM   25  C28 UNL     1       6.194   2.140  97.778  1.00  0.00     0.038 C 
HETATM   26  C29 UNL     1       7.331   2.187  96.810  1.00  0.00     0.119 C 
HETATM   27  C30 UNL     1       8.273   3.334  97.083  1.00  0.00     0.037 C 
HETATM   28  C31 UNL     1       8.948   3.092  98.384  1.00  0.00     0.006 C 
HETATM   29  C32 UNL     1      10.122   2.132  98.256  1.00  0.00     0.011 C 
ENDROOT
BRANCH   1  30
HETATM   30  C2  UNL     1       8.202   3.469 100.709  1.00  0.00     0.271 C 
HETATM   31  O2  UNL     1       7.565   4.523 100.909  1.00  0.00    -0.264 OA
BRANCH  30  32
HETATM   32  O1  UNL     1       9.114   2.972 101.622  1.00  0.00    -0.326 OA
HETATM   33  C1  UNL     1       8.703   2.683 102.943  1.00  0.00     0.213 C 
ENDBRANCH  30  32
ENDBRANCH   1  30
BRANCH   5  34
HETATM   34  O3  UNL     1       3.657   2.738 100.139  1.00  0.00    -0.316 OA
BRANCH  34  35
HETATM   35  C8  UNL     1       2.602   2.901  99.277  1.00  0.00     0.255 C 
HETATM   36  C9  UNL     1       2.873   3.336  97.887  1.00  0.00     0.126 C 
HETATM   37  O4  UNL     1       1.468   2.667  99.735  1.00  0.00    -0.266 OA
ENDBRANCH  34  35
ENDBRANCH   5  34
BRANCH  26  38
HETATM   38  O6  UNL     1       6.922   2.276  95.488  1.00  0.00    -0.396 OA
ATOM     39  H6  UNL     1       7.589   2.001  94.869  1.00  0.00     0.210 HD
ENDBRANCH  26  38
BRANCH  20  40
HETATM   40  O5  UNL     1       4.981  -1.750 106.823  1.00  0.00    -0.386 OA
ATOM     41  H5  UNL     1       5.826  -1.393 106.574  1.00  0.00     0.211 HD
ENDBRANCH  20  40
TORSDOF 6
ENDMDL
MODEL 5
REMARK VINA RESULT: -6.237630889      3.309      7.864
REMARK  6 active torsions:
REMARK  status: ('A' for Active; 'I' for Inactive)
REMARK    1  A    between atoms: O1_2  and  C2_3 
REMARK    2  A    between atoms: C2_3  and  C3_5 
REMARK    3  A    between atoms: C7_9  and  O3_10 
REMARK    4  A    between atoms: O3_10  and  C8_11 
REMARK    5  A    between atoms: C23_28  and  O5_30 
REMARK    6  A    between atoms: C29_36  and  O6_37 
ROOT
HETATM    1  C3  UNL     1       7.050   2.669  99.952  1.00  0.00     0.074 C 
HETATM    2  C4  UNL     1       7.169   1.227 100.338  1.00  0.00    -0.002 C 
HETATM    3  C5  UNL     1       6.442   1.025 101.455  1.00  0.00    -0.067 C 
HETATM    4  C6  UNL     1       5.830   2.301 101.833  1.00  0.00     0.050 C 
HETATM    5  C7  UNL     1       4.598   2.091 102.601  1.00  0.00     0.141 C 
HETATM    6  C10 UNL     1       5.027   1.291 103.849  1.00  0.00     0.044 C 
HETATM    7  C11 UNL     1       5.319  -0.097 103.404  1.00  0.00    -0.019 C 
HETATM    8  C12 UNL     1       3.971  -0.589 102.827  1.00  0.00     0.017 C 
HETATM    9  C13 UNL     1       6.261  -0.205 102.233  1.00  0.00     0.047 C 
HETATM   10  C14 UNL     1       7.549  -0.630 102.854  1.00  0.00    -0.009 C 
HETATM   11  C15 UNL     1       7.313  -1.057 104.058  1.00  0.00    -0.051 C 
HETATM   12  C16 UNL     1       7.982  -1.608 105.248  1.00  0.00     0.014 C 
HETATM   13  C17 UNL     1       7.190  -1.357 106.317  1.00  0.00    -0.040 C 
HETATM   14  C18 UNL     1       5.981  -0.643 105.851  1.00  0.00     0.036 C 
HETATM   15  C19 UNL     1       4.837  -0.955 106.736  1.00  0.00     0.005 C 
HETATM   16  C20 UNL     1       4.272   0.338 107.388  1.00  0.00     0.012 C 
HETATM   17  C21 UNL     1       5.111  -1.853 107.915  1.00  0.00     0.065 C 
HETATM   18 BR1  UNL     1       5.017  -3.721 107.565  1.00  0.00    -0.091 Br
HETATM   19  C22 UNL     1       6.369  -1.449 108.633  1.00  0.00     0.058 C 
HETATM   20  C23 UNL     1       7.508  -1.709 107.731  1.00  0.00     0.079 C 
HETATM   21  C24 UNL     1       7.979  -3.150 107.806  1.00  0.00     0.051 C 
HETATM   22  C25 UNL     1       5.855  -1.025 104.421  1.00  0.00    -0.001 C 
HETATM   23  C26 UNL     1       5.401  -2.423 104.193  1.00  0.00     0.022 C 
HETATM   24  C27 UNL     1       5.645   2.949 100.469  1.00  0.00     0.021 C 
HETATM   25  C28 UNL     1       4.590   2.223  99.674  1.00  0.00     0.038 C 
HETATM   26  C29 UNL     1       4.965   2.079  98.235  1.00  0.00     0.119 C 
HETATM   27  C30 UNL     1       5.956   3.127  97.790  1.00  0.00     0.037 C 
HETATM   28  C31 UNL     1       7.241   2.896  98.499  1.00  0.00     0.006 C 
HETATM   29  C32 UNL     1       8.073   1.804  97.844  1.00  0.00     0.011 C 
ENDROOT
BRANCH   1  30
HETATM   30  C2  UNL     1       7.986   3.505 100.774  1.00  0.00     0.271 C 
HETATM   31  O2  UNL     1       7.771   4.724 100.934  1.00  0.00    -0.264 OA
BRANCH  30  32
HETATM   32  O1  UNL     1       9.078   2.868 101.335  1.00  0.00    -0.326 OA
HETATM   33  C1  UNL     1       9.318   2.974 102.725  1.00  0.00     0.213 C 
ENDBRANCH  30  32
ENDBRANCH   1  30
BRANCH   5  34
HETATM   34  O3  UNL     1       3.906   3.255 102.966  1.00  0.00    -0.316 OA
BRANCH  34  35
HETATM   35  C8  UNL     1       2.580   3.523 102.740  1.00  0.00     0.255 C 
HETATM   36  C9  UNL     1       1.736   2.485 102.105  1.00  0.00     0.126 C 
HETATM   37  O4  UNL     1       2.171   4.646 103.093  1.00  0.00    -0.266 OA
ENDBRANCH  34  35
ENDBRANCH   5  34
BRANCH  26  38
HETATM   38  O6  UNL     1       3.878   2.126  97.377  1.00  0.00    -0.396 OA
ATOM     39  H6  UNL     1       4.091   1.878  96.486  1.00  0.00     0.210 HD
ENDBRANCH  26  38
BRANCH  20  40
HETATM   40  O5  UNL     1       8.578  -0.908 108.202  1.00  0.00    -0.386 OA
ATOM     41  H5  UNL     1       8.863  -0.313 107.518  1.00  0.00     0.211 HD
ENDBRANCH  20  40
TORSDOF 6
ENDMDL
