MODEL 1
REMARK VINA RESULT: -7.715995192      0.000      0.000
REMARK  9 active torsions:
REMARK  status: ('A' for Active; 'I' for Inactive)
REMARK    1  A    between atoms: N1_2  and  C2_4 
REMARK    2  A    between atoms: C2_4  and  C3_5 
REMARK    3  A    between atoms: C2_4  and  C4_10 
REMARK       I    between atoms: C4_10  and  N4_12 
REMARK    4  A    between atoms: N4_12  and  C5_14 
REMARK    5  A    between atoms: C5_14  and  C6_15 
REMARK    6  A    between atoms: C5_14  and  C14_23 
REMARK    7  A    between atoms: C6_15  and  C7_16 
REMARK    8  A    between atoms: C7_16  and  C8_17 
REMARK    9  A    between atoms: C14_23  and  C15_24 
ROOT
HETATM    1  C5  UNL     1      91.935  45.598  68.385  1.00  0.00    -0.005 C 
ENDROOT
BRANCH   1   2
HETATM    2  N4  UNL     1      90.957  45.168  67.422  1.00  0.00    -0.332 N 
HETATM    3  C4  UNL     1      91.087  44.638  66.153  1.00  0.00     0.251 C 
HETATM    4  O1  UNL     1      92.162  44.448  65.574  1.00  0.00    -0.270 OA
ATOM      5  H4  UNL     1      89.991  45.275  67.731  1.00  0.00     0.168 HD
BRANCH   3   6
HETATM    6  C2  UNL     1      89.860  44.244  65.370  1.00  0.00     0.234 C 
BRANCH   6   7
HETATM    7  N1  UNL     1      90.209  43.328  64.329  1.00  0.00    -0.408 N 
HETATM    8  C1  UNL     1      89.896  43.682  63.023  1.00  0.00     0.141 C 
ATOM      9  H1  UNL     1      90.672  42.443  64.538  1.00  0.00     0.153 HD
ENDBRANCH   6   7
BRANCH   6  10
HETATM   10  C3  UNL     1      88.865  43.565  66.221  1.00  0.00     0.118 C 
HETATM   11  N2  UNL     1      88.707  42.298  66.125  1.00  0.00    -0.389 N 
ATOM     12  H22 UNL     1      89.270  41.770  65.458  1.00  0.00     0.157 HD
ATOM     13  H21 UNL     1      88.019  41.828  66.714  1.00  0.00     0.157 HD
HETATM   14  N3  UNL     1      88.088  44.293  67.141  1.00  0.00    -0.085 NA
ENDBRANCH   6  10
ENDBRANCH   3   6
ENDBRANCH   1   2
BRANCH   1  15
HETATM   15  C6  UNL     1      91.645  45.123  69.747  1.00  0.00     0.057 C 
BRANCH  15  16
HETATM   16  C7  UNL     1      90.459  44.245  69.919  1.00  0.00     0.044 C 
BRANCH  16  17
HETATM   17  C8  UNL     1      89.549  44.815  70.970  1.00  0.00    -0.058 A 
HETATM   18  C9  UNL     1      88.167  44.825  70.813  1.00  0.00     0.007 A 
HETATM   19  C10 UNL     1      87.336  45.350  71.779  1.00  0.00     0.001 A 
HETATM   20  C11 UNL     1      87.839  45.888  72.941  1.00  0.00     0.000 A 
HETATM   21  C12 UNL     1      89.214  45.882  73.100  1.00  0.00     0.001 A 
HETATM   22  C13 UNL     1      90.044  45.357  72.137  1.00  0.00     0.007 A 
ENDBRANCH  16  17
ENDBRANCH  15  16
ENDBRANCH   1  15
BRANCH   1  23
HETATM   23  C14 UNL     1      92.367  47.015  68.225  1.00  0.00     0.111 C 
BRANCH  23  24
HETATM   24  C15 UNL     1      93.641  47.136  67.470  1.00  0.00     0.030 A 
HETATM   25  C16 UNL     1      94.630  46.168  67.394  1.00  0.00     0.114 A 
HETATM   26  N5  UNL     1      95.625  46.601  66.598  1.00  0.00    -0.360 N 
HETATM   27  C17 UNL     1      95.290  47.822  66.167  1.00  0.00     0.180 A 
ATOM     28  H5  UNL     1      96.478  46.091  66.367  1.00  0.00     0.166 HD
HETATM   29  N6  UNL     1      94.094  48.144  66.692  1.00  0.00    -0.354 N 
ATOM     30  H6  UNL     1      93.601  49.022  66.528  1.00  0.00     0.166 HD
ENDBRANCH  23  24
ENDBRANCH   1  23
TORSDOF 9
ENDMDL
MODEL 2
REMARK VINA RESULT: -7.695641606      1.666      2.685
REMARK  9 active torsions:
REMARK  status: ('A' for Active; 'I' for Inactive)
REMARK    1  A    between atoms: N1_2  and  C2_4 
REMARK    2  A    between atoms: C2_4  and  C3_5 
REMARK    3  A    between atoms: C2_4  and  C4_10 
REMARK       I    between atoms: C4_10  and  N4_12 
REMARK    4  A    between atoms: N4_12  and  C5_14 
REMARK    5  A    between atoms: C5_14  and  C6_15 
REMARK    6  A    between atoms: C5_14  and  C14_23 
REMARK    7  A    between atoms: C6_15  and  C7_16 
REMARK    8  A    between atoms: C7_16  and  C8_17 
REMARK    9  A    between atoms: C14_23  and  C15_24 
ROOT
HETATM    1  C5  UNL     1      91.676  45.551  67.468  1.00  0.00    -0.005 C 
ENDROOT
BRANCH   1   2
HETATM    2  N4  UNL     1      91.395  45.355  66.071  1.00  0.00    -0.332 N 
HETATM    3  C4  UNL     1      92.092  44.698  65.076  1.00  0.00     0.251 C 
HETATM    4  O1  UNL     1      93.183  44.139  65.230  1.00  0.00    -0.270 OA
ATOM      5  H4  UNL     1      90.522  45.779  65.757  1.00  0.00     0.168 HD
BRANCH   3   6
HETATM    6  C2  UNL     1      91.529  44.628  63.679  1.00  0.00     0.234 C 
BRANCH   6   7
HETATM    7  N1  UNL     1      90.955  45.886  63.312  1.00  0.00    -0.408 N 
HETATM    8  C1  UNL     1      90.024  45.897  62.282  1.00  0.00     0.141 C 
ATOM      9  H1  UNL     1      91.220  46.747  63.791  1.00  0.00     0.153 HD
ENDBRANCH   6   7
BRANCH   6  10
HETATM   10  C3  UNL     1      92.575  44.330  62.683  1.00  0.00     0.118 C 
HETATM   11  N2  UNL     1      93.548  45.147  62.520  1.00  0.00    -0.389 N 
ATOM     12  H22 UNL     1      93.587  46.000  63.079  1.00  0.00     0.157 HD
ATOM     13  H21 UNL     1      94.272  44.941  61.832  1.00  0.00     0.157 HD
HETATM   14  N3  UNL     1      92.521  43.153  61.913  1.00  0.00    -0.085 NA
ENDBRANCH   6  10
ENDBRANCH   3   6
ENDBRANCH   1   2
BRANCH   1  15
HETATM   15  C6  UNL     1      90.640  44.985  68.346  1.00  0.00     0.057 C 
BRANCH  15  16
HETATM   16  C7  UNL     1      91.029  44.693  69.750  1.00  0.00     0.044 C 
BRANCH  16  17
HETATM   17  C8  UNL     1      89.880  44.992  70.671  1.00  0.00    -0.058 A 
HETATM   18  C9  UNL     1      90.082  45.481  71.957  1.00  0.00     0.007 A 
HETATM   19  C10 UNL     1      89.026  45.753  72.800  1.00  0.00     0.001 A 
HETATM   20  C11 UNL     1      87.724  45.552  72.403  1.00  0.00     0.000 A 
HETATM   21  C12 UNL     1      87.518  45.064  71.123  1.00  0.00     0.001 A 
HETATM   22  C13 UNL     1      88.573  44.793  70.283  1.00  0.00     0.007 A 
ENDBRANCH  16  17
ENDBRANCH  15  16
ENDBRANCH   1  15
BRANCH   1  23
HETATM   23  C14 UNL     1      92.197  46.907  67.801  1.00  0.00     0.111 C 
BRANCH  23  24
HETATM   24  C15 UNL     1      93.567  47.131  67.270  1.00  0.00     0.030 A 
HETATM   25  C16 UNL     1      94.654  46.293  67.460  1.00  0.00     0.114 A 
HETATM   26  N5  UNL     1      95.724  46.788  66.811  1.00  0.00    -0.360 N 
HETATM   27  C17 UNL     1      95.341  47.921  66.213  1.00  0.00     0.180 A 
ATOM     28  H5  UNL     1      96.656  46.375  66.781  1.00  0.00     0.166 HD
HETATM   29  N6  UNL     1      94.041  48.128  66.490  1.00  0.00    -0.354 N 
ATOM     30  H6  UNL     1      93.492  48.922  66.159  1.00  0.00     0.166 HD
ENDBRANCH  23  24
ENDBRANCH   1  23
TORSDOF 9
ENDMDL
MODEL 3
REMARK VINA RESULT: -7.652771421      1.146      1.523
REMARK  9 active torsions:
REMARK  status: ('A' for Active; 'I' for Inactive)
REMARK    1  A    between atoms: N1_2  and  C2_4 
REMARK    2  A    between atoms: C2_4  and  C3_5 
REMARK    3  A    between atoms: C2_4  and  C4_10 
REMARK       I    between atoms: C4_10  and  N4_12 
REMARK    4  A    between atoms: N4_12  and  C5_14 
REMARK    5  A    between atoms: C5_14  and  C6_15 
REMARK    6  A    between atoms: C5_14  and  C14_23 
REMARK    7  A    between atoms: C6_15  and  C7_16 
REMARK    8  A    between atoms: C7_16  and  C8_17 
REMARK    9  A    between atoms: C14_23  and  C15_24 
ROOT
HETATM    1  C5  UNL     1      92.174  45.261  68.808  1.00  0.00    -0.005 C 
ENDROOT
BRANCH   1   2
HETATM    2  N4  UNL     1      91.512  44.675  67.673  1.00  0.00    -0.332 N 
HETATM    3  C4  UNL     1      90.397  45.066  66.957  1.00  0.00     0.251 C 
HETATM    4  O1  UNL     1      89.709  46.060  67.209  1.00  0.00    -0.270 OA
ATOM      5  H4  UNL     1      91.943  43.815  67.336  1.00  0.00     0.168 HD
BRANCH   3   6
HETATM    6  C2  UNL     1      89.940  44.254  65.770  1.00  0.00     0.234 C 
BRANCH   6   7
HETATM    7  N1  UNL     1      91.039  43.996  64.892  1.00  0.00    -0.408 N 
HETATM    8  C1  UNL     1      91.429  45.010  64.027  1.00  0.00     0.141 C 
ATOM      9  H1  UNL     1      91.522  43.097  64.902  1.00  0.00     0.153 HD
ENDBRANCH   6   7
BRANCH   6  10
HETATM   10  C3  UNL     1      89.404  42.943  66.181  1.00  0.00     0.118 C 
HETATM   11  N2  UNL     1      89.060  42.091  65.288  1.00  0.00    -0.389 N 
ATOM     12  H22 UNL     1      89.157  42.329  64.302  1.00  0.00     0.157 HD
ATOM     13  H21 UNL     1      88.689  41.184  65.572  1.00  0.00     0.157 HD
HETATM   14  N3  UNL     1      89.270  42.614  67.542  1.00  0.00    -0.085 NA
ENDBRANCH   6  10
ENDBRANCH   3   6
ENDBRANCH   1   2
BRANCH   1  15
HETATM   15  C6  UNL     1      91.588  44.846  70.092  1.00  0.00     0.057 C 
BRANCH  15  16
HETATM   16  C7  UNL     1      91.116  45.923  71.000  1.00  0.00     0.044 C 
BRANCH  16  17
HETATM   17  C8  UNL     1      89.680  45.685  71.371  1.00  0.00    -0.058 A 
HETATM   18  C9  UNL     1      89.204  45.943  72.653  1.00  0.00     0.007 A 
HETATM   19  C10 UNL     1      87.886  45.722  72.990  1.00  0.00     0.001 A 
HETATM   20  C11 UNL     1      86.984  45.235  72.072  1.00  0.00     0.000 A 
HETATM   21  C12 UNL     1      87.454  44.976  70.796  1.00  0.00     0.001 A 
HETATM   22  C13 UNL     1      88.769  45.197  70.459  1.00  0.00     0.007 A 
ENDBRANCH  16  17
ENDBRANCH  15  16
ENDBRANCH   1  15
BRANCH   1  23
HETATM   23  C14 UNL     1      92.514  46.703  68.638  1.00  0.00     0.111 C 
BRANCH  23  24
HETATM   24  C15 UNL     1      93.630  46.910  67.680  1.00  0.00     0.030 A 
HETATM   25  C16 UNL     1      94.689  46.040  67.472  1.00  0.00     0.114 A 
HETATM   26  N5  UNL     1      95.493  46.530  66.510  1.00  0.00    -0.360 N 
HETATM   27  C17 UNL     1      94.969  47.691  66.103  1.00  0.00     0.180 A 
ATOM     28  H5  UNL     1      96.345  46.095  66.157  1.00  0.00     0.166 HD
HETATM   29  N6  UNL     1      93.847  47.921  66.809  1.00  0.00    -0.354 N 
ATOM     30  H6  UNL     1      93.246  48.738  66.702  1.00  0.00     0.166 HD
ENDBRANCH  23  24
ENDBRANCH   1  23
TORSDOF 9
ENDMDL
MODEL 4
REMARK VINA RESULT: -7.628729497      1.574      4.696
REMARK  9 active torsions:
REMARK  status: ('A' for Active; 'I' for Inactive)
REMARK    1  A    between atoms: N1_2  and  C2_4 
REMARK    2  A    between atoms: C2_4  and  C3_5 
REMARK    3  A    between atoms: C2_4  and  C4_10 
REMARK       I    between atoms: C4_10  and  N4_12 
REMARK    4  A    between atoms: N4_12  and  C5_14 
REMARK    5  A    between atoms: C5_14  and  C6_15 
REMARK    6  A    between atoms: C5_14  and  C14_23 
REMARK    7  A    between atoms: C6_15  and  C7_16 
REMARK    8  A    between atoms: C7_16  and  C8_17 
REMARK    9  A    between atoms: C14_23  and  C15_24 
ROOT
HETATM    1  C5  UNL     1      91.103  45.463  67.911  1.00  0.00    -0.005 C 
ENDROOT
BRANCH   1   2
HETATM    2  N4  UNL     1      92.194  45.887  67.074  1.00  0.00    -0.332 N 
HETATM    3  C4  UNL     1      92.967  47.031  67.082  1.00  0.00     0.251 C 
HETATM    4  O1  UNL     1      92.823  47.976  67.865  1.00  0.00    -0.270 OA
ATOM      5  H4  UNL     1      92.441  45.222  66.341  1.00  0.00     0.168 HD
BRANCH   3   6
HETATM    6  C2  UNL     1      94.084  47.194  66.081  1.00  0.00     0.234 C 
BRANCH   6   7
HETATM    7  N1  UNL     1      95.343  46.890  66.689  1.00  0.00    -0.408 N 
HETATM    8  C1  UNL     1      96.203  47.945  66.959  1.00  0.00     0.141 C 
ATOM      9  H1  UNL     1      95.600  45.929  66.916  1.00  0.00     0.153 HD
ENDBRANCH   6   7
BRANCH   6  10
HETATM   10  C3  UNL     1      93.929  46.277  64.937  1.00  0.00     0.118 C 
HETATM   11  N2  UNL     1      94.911  45.536  64.580  1.00  0.00    -0.389 N 
ATOM     12  H22 UNL     1      95.792  45.590  65.090  1.00  0.00     0.157 HD
ATOM     13  H21 UNL     1      94.803  44.901  63.789  1.00  0.00     0.157 HD
HETATM   14  N3  UNL     1      92.712  46.203  64.234  1.00  0.00    -0.085 NA
ENDBRANCH   6  10
ENDBRANCH   3   6
ENDBRANCH   1   2
BRANCH   1  15
HETATM   15  C6  UNL     1      91.381  45.635  69.346  1.00  0.00     0.057 C 
BRANCH  15  16
HETATM   16  C7  UNL     1      90.980  44.526  70.250  1.00  0.00     0.044 C 
BRANCH  16  17
HETATM   17  C8  UNL     1      89.786  44.938  71.064  1.00  0.00    -0.058 A 
HETATM   18  C9  UNL     1      89.922  45.479  72.338  1.00  0.00     0.007 A 
HETATM   19  C10 UNL     1      88.825  45.855  73.083  1.00  0.00     0.001 A 
HETATM   20  C11 UNL     1      87.545  45.709  72.597  1.00  0.00     0.000 A 
HETATM   21  C12 UNL     1      87.406  45.169  71.329  1.00  0.00     0.001 A 
HETATM   22  C13 UNL     1      88.501  44.795  70.586  1.00  0.00     0.007 A 
ENDBRANCH  16  17
ENDBRANCH  15  16
ENDBRANCH   1  15
BRANCH   1  23
HETATM   23  C14 UNL     1      90.464  44.187  67.480  1.00  0.00     0.111 C 
BRANCH  23  24
HETATM   24  C15 UNL     1      90.072  44.209  66.047  1.00  0.00     0.030 A 
HETATM   25  C16 UNL     1      88.998  44.904  65.514  1.00  0.00     0.114 A 
HETATM   26  N5  UNL     1      88.962  44.724  64.180  1.00  0.00    -0.360 N 
HETATM   27  C17 UNL     1      89.988  43.931  63.855  1.00  0.00     0.180 A 
ATOM     28  H5  UNL     1      88.277  45.120  63.536  1.00  0.00     0.166 HD
HETATM   29  N6  UNL     1      90.657  43.620  64.980  1.00  0.00    -0.354 N 
ATOM     30  H6  UNL     1      91.486  43.027  65.022  1.00  0.00     0.166 HD
ENDBRANCH  23  24
ENDBRANCH   1  23
TORSDOF 9
ENDMDL
MODEL 5
REMARK VINA RESULT: -7.620062955      2.005      3.132
REMARK  9 active torsions:
REMARK  status: ('A' for Active; 'I' for Inactive)
REMARK    1  A    between atoms: N1_2  and  C2_4 
REMARK    2  A    between atoms: C2_4  and  C3_5 
REMARK    3  A    between atoms: C2_4  and  C4_10 
REMARK       I    between atoms: C4_10  and  N4_12 
REMARK    4  A    between atoms: N4_12  and  C5_14 
REMARK    5  A    between atoms: C5_14  and  C6_15 
REMARK    6  A    between atoms: C5_14  and  C14_23 
REMARK    7  A    between atoms: C6_15  and  C7_16 
REMARK    8  A    between atoms: C7_16  and  C8_17 
REMARK    9  A    between atoms: C14_23  and  C15_24 
ROOT
HETATM    1  C5  UNL     1      92.968  45.247  67.092  1.00  0.00    -0.005 C 
ENDROOT
BRANCH   1   2
HETATM    2  N4  UNL     1      92.503  44.768  65.817  1.00  0.00    -0.332 N 
HETATM    3  C4  UNL     1      93.132  44.655  64.593  1.00  0.00     0.251 C 
HETATM    4  O1  UNL     1      94.296  44.998  64.363  1.00  0.00    -0.270 OA
ATOM      5  H4  UNL     1      91.532  44.456  65.818  1.00  0.00     0.168 HD
BRANCH   3   6
HETATM    6  C2  UNL     1      92.390  44.077  63.414  1.00  0.00     0.234 C 
BRANCH   6   7
HETATM    7  N1  UNL     1      90.997  43.957  63.715  1.00  0.00    -0.408 N 
HETATM    8  C1  UNL     1      90.186  43.321  62.785  1.00  0.00     0.141 C 
ATOM      9  H1  UNL     1      90.611  44.327  64.584  1.00  0.00     0.153 HD
ENDBRANCH   6   7
BRANCH   6  10
HETATM   10  C3  UNL     1      92.497  44.943  62.225  1.00  0.00     0.118 C 
HETATM   11  N2  UNL     1      92.096  46.158  62.287  1.00  0.00    -0.389 N 
ATOM     12  H22 UNL     1      91.702  46.514  63.158  1.00  0.00     0.157 HD
ATOM     13  H21 UNL     1      92.171  46.758  61.465  1.00  0.00     0.157 HD
HETATM   14  N3  UNL     1      93.041  44.453  61.024  1.00  0.00    -0.085 NA
ENDBRANCH   6  10
ENDBRANCH   3   6
ENDBRANCH   1   2
BRANCH   1  15
HETATM   15  C6  UNL     1      92.515  44.415  68.217  1.00  0.00     0.057 C 
BRANCH  15  16
HETATM   16  C7  UNL     1      92.290  45.099  69.517  1.00  0.00     0.044 C 
BRANCH  16  17
HETATM   17  C8  UNL     1      90.852  44.954  69.928  1.00  0.00    -0.058 A 
HETATM   18  C9  UNL     1      90.277  45.788  70.880  1.00  0.00     0.007 A 
HETATM   19  C10 UNL     1      88.958  45.652  71.256  1.00  0.00     0.001 A 
HETATM   20  C11 UNL     1      88.152  44.683  70.703  1.00  0.00     0.000 A 
HETATM   21  C12 UNL     1      88.722  43.850  69.755  1.00  0.00     0.001 A 
HETATM   22  C13 UNL     1      90.038  43.986  69.380  1.00  0.00     0.007 A 
ENDBRANCH  16  17
ENDBRANCH  15  16
ENDBRANCH   1  15
BRANCH   1  23
HETATM   23  C14 UNL     1      92.890  46.727  67.253  1.00  0.00     0.111 C 
BRANCH  23  24
HETATM   24  C15 UNL     1      94.186  47.395  66.967  1.00  0.00     0.030 A 
HETATM   25  C16 UNL     1      94.467  48.170  65.852  1.00  0.00     0.114 A 
HETATM   26  N5  UNL     1      95.724  48.644  65.938  1.00  0.00    -0.360 N 
HETATM   27  C17 UNL     1      96.247  48.187  67.081  1.00  0.00     0.180 A 
ATOM     28  H5  UNL     1      96.191  49.241  65.256  1.00  0.00     0.166 HD
HETATM   29  N6  UNL     1      95.320  47.434  67.700  1.00  0.00    -0.354 N 
ATOM     30  H6  UNL     1      95.454  46.961  68.595  1.00  0.00     0.166 HD
ENDBRANCH  23  24
ENDBRANCH   1  23
TORSDOF 9
ENDMDL
