MODEL 1
REMARK VINA RESULT: -5.270559045      0.000      0.000
REMARK  5 active torsions:
REMARK  status: ('A' for Active; 'I' for Inactive)
REMARK    1  A    between atoms: N2_3  and  C2_5 
REMARK    2  A    between atoms: C3_8  and  C4_9 
REMARK    3  A    between atoms: C4_9  and  N4_10 
REMARK    4  A    between atoms: C4_9  and  N5_14 
REMARK    5  A    between atoms: C5_20  and  N7_21 
ROOT
HETATM    1  N1  UNL     1       9.488  57.075  56.114  1.00  0.00    -0.171 NA
HETATM    2  C1  UNL     1      10.177  56.566  55.312  1.00  0.00     0.196 C 
HETATM    3  N2  UNL     1      10.979  55.953  54.344  1.00  0.00    -0.125 N 
ATOM      4  H2  UNL     1      10.561  55.274  53.708  1.00  0.00     0.197 HD
ENDROOT
BRANCH   3   5
HETATM    5  C2  UNL     1      12.213  56.221  54.238  1.00  0.00     0.707 A 
HETATM    6  N3  UNL     1      12.928  55.889  53.125  1.00  0.00    -0.175 N 
HETATM    7  C3  UNL     1      14.231  56.180  53.031  1.00  0.00     0.170 A 
ATOM      8  H3  UNL     1      12.462  55.412  52.353  1.00  0.00     0.185 HD
HETATM    9  N6  UNL     1      14.835  56.814  54.064  1.00  0.00    -0.176 N 
HETATM   10  C5  UNL     1      14.141  57.147  55.166  1.00  0.00     0.691 A 
ATOM     11  H6  UNL     1      15.827  57.043  54.005  1.00  0.00     0.185 HD
HETATM   12  N8  UNL     1      12.837  56.848  55.244  1.00  0.00    -0.022 N 
ATOM     13  H8  UNL     1      12.312  57.102  56.081  1.00  0.00     0.203 HD
BRANCH   7  14
HETATM   14  C4  UNL     1      15.006  55.828  51.845  1.00  0.00     0.445 C 
BRANCH  14  15
HETATM   15  N4  UNL     1      16.450  55.874  52.129  1.00  0.00    -0.043 N 
ATOM     16  H43 UNL     1      16.652  56.419  52.968  1.00  0.00     0.277 HD
ATOM     17  H42 UNL     1      16.800  54.970  52.444  1.00  0.00     0.277 HD
ATOM     18  H41 UNL     1      16.968  56.219  51.321  1.00  0.00     0.277 HD
ENDBRANCH  14  15
BRANCH  14  19
HETATM   19  N5  UNL     1      14.784  56.685  50.719  1.00  0.00    -0.043 N 
ATOM     20  H53 UNL     1      14.448  57.597  51.027  1.00  0.00     0.277 HD
ATOM     21  H52 UNL     1      15.672  56.959  50.299  1.00  0.00     0.277 HD
ATOM     22  H51 UNL     1      14.160  56.296  50.011  1.00  0.00     0.277 HD
ENDBRANCH  14  19
ENDBRANCH   7  14
BRANCH  10  23
HETATM   23  N7  UNL     1      14.727  57.746  56.134  1.00  0.00    -0.234 N 
ATOM     24  H72 UNL     1      15.336  58.545  55.954  1.00  0.00     0.174 HD
ATOM     25  H71 UNL     1      14.586  57.425  57.092  1.00  0.00     0.174 HD
ENDBRANCH  10  23
ENDBRANCH   3   5
TORSDOF 5
ENDMDL
MODEL 2
REMARK VINA RESULT: -5.065893680      0.969      4.727
REMARK  5 active torsions:
REMARK  status: ('A' for Active; 'I' for Inactive)
REMARK    1  A    between atoms: N2_3  and  C2_5 
REMARK    2  A    between atoms: C3_8  and  C4_9 
REMARK    3  A    between atoms: C4_9  and  N4_10 
REMARK    4  A    between atoms: C4_9  and  N5_14 
REMARK    5  A    between atoms: C5_20  and  N7_21 
ROOT
HETATM    1  N1  UNL     1      15.986  56.208  51.114  1.00  0.00    -0.171 NA
HETATM    2  C1  UNL     1      14.865  56.222  51.464  1.00  0.00     0.196 C 
HETATM    3  N2  UNL     1      13.525  56.227  51.860  1.00  0.00    -0.125 N 
ATOM      4  H2  UNL     1      12.801  56.019  51.172  1.00  0.00     0.197 HD
ENDROOT
BRANCH   3   5
HETATM    5  C2  UNL     1      13.187  56.484  53.055  1.00  0.00     0.707 A 
HETATM    6  N3  UNL     1      11.920  56.258  53.508  1.00  0.00    -0.175 N 
HETATM    7  C3  UNL     1      11.582  56.535  54.773  1.00  0.00     0.170 A 
ATOM      8  H3  UNL     1      11.222  55.872  52.873  1.00  0.00     0.185 HD
HETATM    9  N6  UNL     1      12.521  57.046  55.604  1.00  0.00    -0.176 N 
HETATM   10  C5  UNL     1      13.773  57.273  55.168  1.00  0.00     0.691 A 
ATOM     11  H6  UNL     1      12.277  57.261  56.570  1.00  0.00     0.185 HD
HETATM   12  N8  UNL     1      14.095  56.990  53.899  1.00  0.00    -0.022 N 
ATOM     13  H8  UNL     1      15.046  57.162  53.571  1.00  0.00     0.203 HD
BRANCH   7  14
HETATM   14  C4  UNL     1      10.229  56.298  55.268  1.00  0.00     0.445 C 
BRANCH  14  15
HETATM   15  N4  UNL     1       9.958  57.116  56.462  1.00  0.00    -0.043 N 
ATOM     16  H43 UNL     1       9.444  57.966  56.230  1.00  0.00     0.277 HD
ATOM     17  H42 UNL     1       9.266  56.678  57.069  1.00  0.00     0.277 HD
ATOM     18  H41 UNL     1      10.822  57.324  56.964  1.00  0.00     0.277 HD
ENDBRANCH  14  15
BRANCH  14  19
HETATM   19  N5  UNL     1       9.963  54.940  55.634  1.00  0.00    -0.043 N 
ATOM     20  H53 UNL     1       9.445  54.902  56.512  1.00  0.00     0.277 HD
ATOM     21  H52 UNL     1       9.271  54.531  55.006  1.00  0.00     0.277 HD
ATOM     22  H51 UNL     1      10.793  54.347  55.684  1.00  0.00     0.277 HD
ENDBRANCH  14  19
ENDBRANCH   7  14
BRANCH  10  23
HETATM   23  N7  UNL     1      14.650  57.757  55.966  1.00  0.00    -0.234 N 
ATOM     24  H72 UNL     1      14.699  57.437  56.934  1.00  0.00     0.174 HD
ATOM     25  H71 UNL     1      15.303  58.467  55.635  1.00  0.00     0.174 HD
ENDBRANCH  10  23
ENDBRANCH   3   5
TORSDOF 5
ENDMDL
MODEL 3
REMARK VINA RESULT: -4.316704884      1.619      5.383
REMARK  5 active torsions:
REMARK  status: ('A' for Active; 'I' for Inactive)
REMARK    1  A    between atoms: N2_3  and  C2_5 
REMARK    2  A    between atoms: C3_8  and  C4_9 
REMARK    3  A    between atoms: C4_9  and  N4_10 
REMARK    4  A    between atoms: C4_9  and  N5_14 
REMARK    5  A    between atoms: C5_20  and  N7_21 
ROOT
HETATM    1  N1  UNL     1      19.144  56.851  52.613  1.00  0.00    -0.171 NA
HETATM    2  C1  UNL     1      18.186  56.658  53.263  1.00  0.00     0.196 C 
HETATM    3  N2  UNL     1      17.058  56.435  54.057  1.00  0.00    -0.125 N 
ATOM      4  H2  UNL     1      17.174  56.304  55.062  1.00  0.00     0.197 HD
ENDROOT
BRANCH   3   5
HETATM    5  C2  UNL     1      15.893  56.390  53.558  1.00  0.00     0.707 A 
HETATM    6  N3  UNL     1      14.781  56.269  54.339  1.00  0.00    -0.175 N 
HETATM    7  C3  UNL     1      13.559  56.224  53.794  1.00  0.00     0.170 A 
ATOM      8  H3  UNL     1      14.882  56.212  55.352  1.00  0.00     0.185 HD
HETATM    9  N6  UNL     1      13.441  56.302  52.447  1.00  0.00    -0.176 N 
HETATM   10  C5  UNL     1      14.530  56.422  51.668  1.00  0.00     0.691 A 
ATOM     11  H6  UNL     1      12.516  56.270  52.019  1.00  0.00     0.185 HD
HETATM   12  N8  UNL     1      15.746  56.466  52.229  1.00  0.00    -0.022 N 
ATOM     13  H8  UNL     1      16.571  56.558  51.636  1.00  0.00     0.203 HD
BRANCH   7  14
HETATM   14  C4  UNL     1      12.362  56.093  54.619  1.00  0.00     0.445 C 
BRANCH  14  15
HETATM   15  N4  UNL     1      11.169  55.887  53.782  1.00  0.00    -0.043 N 
ATOM     16  H43 UNL     1      11.029  54.902  53.558  1.00  0.00     0.277 HD
ATOM     17  H42 UNL     1      10.309  56.049  54.305  1.00  0.00     0.277 HD
ATOM     18  H41 UNL     1      11.212  56.462  52.940  1.00  0.00     0.277 HD
ENDBRANCH  14  15
BRANCH  14  19
HETATM   19  N5  UNL     1      12.089  57.228  55.448  1.00  0.00    -0.043 N 
ATOM     20  H53 UNL     1      12.439  57.071  56.393  1.00  0.00     0.277 HD
ATOM     21  H52 UNL     1      12.674  58.018  55.175  1.00  0.00     0.277 HD
ATOM     22  H51 UNL     1      11.107  57.505  55.474  1.00  0.00     0.277 HD
ENDBRANCH  14  19
ENDBRANCH   7  14
BRANCH  10  23
HETATM   23  N7  UNL     1      14.401  56.494  50.395  1.00  0.00    -0.234 N 
ATOM     24  H72 UNL     1      14.805  55.775  49.794  1.00  0.00     0.174 HD
ATOM     25  H71 UNL     1      13.894  57.274  49.978  1.00  0.00     0.174 HD
ENDBRANCH  10  23
ENDBRANCH   3   5
TORSDOF 5
ENDMDL
MODEL 4
REMARK VINA RESULT: -4.149508293      1.256      4.725
REMARK  5 active torsions:
REMARK  status: ('A' for Active; 'I' for Inactive)
REMARK    1  A    between atoms: N2_3  and  C2_5 
REMARK    2  A    between atoms: C3_8  and  C4_9 
REMARK    3  A    between atoms: C4_9  and  N4_10 
REMARK    4  A    between atoms: C4_9  and  N5_14 
REMARK    5  A    between atoms: C5_20  and  N7_21 
ROOT
HETATM    1  N1  UNL     1      18.474  56.531  52.663  1.00  0.00    -0.171 NA
HETATM    2  C1  UNL     1      17.357  56.181  52.577  1.00  0.00     0.196 C 
HETATM    3  N2  UNL     1      16.033  55.747  52.459  1.00  0.00    -0.125 N 
ATOM      4  H2  UNL     1      15.774  55.144  51.677  1.00  0.00     0.197 HD
ENDROOT
BRANCH   3   5
HETATM    5  C2  UNL     1      15.147  56.084  53.300  1.00  0.00     0.707 A 
HETATM    6  N3  UNL     1      13.825  55.810  53.100  1.00  0.00    -0.175 N 
HETATM    7  C3  UNL     1      12.903  56.174  54.000  1.00  0.00     0.170 A 
ATOM      8  H3  UNL     1      13.536  55.322  52.253  1.00  0.00     0.185 HD
HETATM    9  N6  UNL     1      13.303  56.821  55.120  1.00  0.00    -0.176 N 
HETATM   10  C5  UNL     1      14.603  57.095  55.328  1.00  0.00     0.691 A 
ATOM     11  H6  UNL     1      12.611  57.103  55.814  1.00  0.00     0.185 HD
HETATM   12  N8  UNL     1      15.513  56.724  54.418  1.00  0.00    -0.022 N 
ATOM     13  H8  UNL     1      16.499  56.932  54.578  1.00  0.00     0.203 HD
BRANCH   7  14
HETATM   14  C4  UNL     1      11.486  55.889  53.795  1.00  0.00     0.445 C 
BRANCH  14  15
HETATM   15  N4  UNL     1      10.881  56.869  52.878  1.00  0.00    -0.043 N 
ATOM     16  H43 UNL     1      11.509  57.104  52.109  1.00  0.00     0.277 HD
ATOM     17  H42 UNL     1      10.121  56.458  52.337  1.00  0.00     0.277 HD
ATOM     18  H41 UNL     1      10.577  57.700  53.385  1.00  0.00     0.277 HD
ENDBRANCH  14  15
BRANCH  14  19
HETATM   19  N5  UNL     1      10.701  55.910  54.993  1.00  0.00    -0.043 N 
ATOM     20  H53 UNL     1      10.341  54.978  55.199  1.00  0.00     0.277 HD
ATOM     21  H52 UNL     1      11.298  56.050  55.808  1.00  0.00     0.277 HD
ATOM     22  H51 UNL     1       9.941  56.591  54.986  1.00  0.00     0.277 HD
ENDBRANCH  14  19
ENDBRANCH   7  14
BRANCH  10  23
HETATM   23  N7  UNL     1      14.965  57.708  56.393  1.00  0.00    -0.234 N 
ATOM     24  H72 UNL     1      15.926  57.639  56.727  1.00  0.00     0.174 HD
ATOM     25  H71 UNL     1      14.289  58.268  56.913  1.00  0.00     0.174 HD
ENDBRANCH  10  23
ENDBRANCH   3   5
TORSDOF 5
ENDMDL
MODEL 5
REMARK VINA RESULT: -4.135597474      1.044      1.109
REMARK  5 active torsions:
REMARK  status: ('A' for Active; 'I' for Inactive)
REMARK    1  A    between atoms: N2_3  and  C2_5 
REMARK    2  A    between atoms: C3_8  and  C4_9 
REMARK    3  A    between atoms: C4_9  and  N4_10 
REMARK    4  A    between atoms: C4_9  and  N5_14 
REMARK    5  A    between atoms: C5_20  and  N7_21 
ROOT
HETATM    1  N1  UNL     1       9.907  56.303  55.483  1.00  0.00    -0.171 NA
HETATM    2  C1  UNL     1      10.788  56.088  54.737  1.00  0.00     0.196 C 
HETATM    3  N2  UNL     1      11.821  55.829  53.832  1.00  0.00    -0.125 N 
ATOM      4  H2  UNL     1      11.608  55.347  52.958  1.00  0.00     0.197 HD
ENDROOT
BRANCH   3   5
HETATM    5  C2  UNL     1      13.016  56.178  54.070  1.00  0.00     0.707 A 
HETATM    6  N3  UNL     1      14.049  55.805  53.261  1.00  0.00    -0.175 N 
HETATM    7  C3  UNL     1      15.305  56.182  53.529  1.00  0.00     0.170 A 
ATOM      8  H3  UNL     1      13.861  55.230  52.440  1.00  0.00     0.185 HD
HETATM    9  N6  UNL     1      15.538  56.947  54.622  1.00  0.00    -0.176 N 
HETATM   10  C5  UNL     1      14.528  57.321  55.427  1.00  0.00     0.691 A 
ATOM     11  H6  UNL     1      16.490  57.243  54.837  1.00  0.00     0.185 HD
HETATM   12  N8  UNL     1      13.277  56.934  55.144  1.00  0.00    -0.022 N 
ATOM     13  H8  UNL     1      12.512  57.220  55.755  1.00  0.00     0.203 HD
BRANCH   7  14
HETATM   14  C4  UNL     1      16.418  55.788  52.670  1.00  0.00     0.445 C 
BRANCH  14  15
HETATM   15  N4  UNL     1      17.639  56.531  53.022  1.00  0.00    -0.043 N 
ATOM     16  H43 UNL     1      17.425  57.456  53.396  1.00  0.00     0.277 HD
ATOM     17  H42 UNL     1      18.098  56.136  53.842  1.00  0.00     0.277 HD
ATOM     18  H41 UNL     1      18.274  56.585  52.224  1.00  0.00     0.277 HD
ENDBRANCH  14  15
BRANCH  14  19
HETATM   19  N5  UNL     1      16.193  56.008  51.273  1.00  0.00    -0.043 N 
ATOM     20  H53 UNL     1      15.597  56.824  51.133  1.00  0.00     0.277 HD
ATOM     21  H52 UNL     1      17.047  56.337  50.823  1.00  0.00     0.277 HD
ATOM     22  H51 UNL     1      15.816  55.201  50.775  1.00  0.00     0.277 HD
ENDBRANCH  14  19
ENDBRANCH   7  14
BRANCH  10  23
HETATM   23  N7  UNL     1      14.765  58.044  56.457  1.00  0.00    -0.234 N 
ATOM     24  H72 UNL     1      14.268  57.875  57.332  1.00  0.00     0.174 HD
ATOM     25  H71 UNL     1      15.455  58.794  56.405  1.00  0.00     0.174 HD
ENDBRANCH  10  23
ENDBRANCH   3   5
TORSDOF 5
ENDMDL
